-------------------------------------------------------
          Amber 24 PMEMD                              2024
          -------------------------------------------------------

  [-O]verwriting output

File Assignments:

 Here is the input file:

md 5 ns temp = 300 P=cte (ntb=2,ntp=1) No restraints
&cntrl
 nstlim = 15000000, dt = 0.002,
 ntx = 5, irest = 1, cut = 9.0, ioutfm = 1,
 ntpr = 50000, ntwr = 50000, ntwx = 50000,
 iwrap = 1,
 tempi = 300., temp0 = 300.,
 ntt = 1,
 ntb = 2, ntp = 1,
 ntc = 2, ntf = 2,
 ntr = 0,
&end

Note: ig = -1. Setting random seed to   527997 based on wallclock time in
      microseconds.

--------------------------------------------------------------------------------
   1.  RESOURCE   USE:
--------------------------------------------------------------------------------

 getting box info from netcdf restart file
 NATOM  =   39469 NTYPES =      16 NBONH =   37644 MBONA  =    1863
 NTHETH =    4046 MTHETA =    2518 NPHIH =    8186 MPHIA  =    7925
 NHPARM =       0 NPARM  =       0 NNB   =   67677 NRES   =   12191
 NBONA  =    1863 NTHETA =    2518 NPHIA =    7925 NUMBND =      81
 NUMANG =     188 NPTRA  =     202 NATYP =      40 NPHB   =       0
 IFBOX  =       1 NMXRS  =      30 IFCAP =       0 NEXTRA =       0
 NCOPY  =       0

     BOX TYPE: RECTILINEAR

--------------------------------------------------------------------------------
   2.  CONTROL  DATA  FOR  THE  RUN
--------------------------------------------------------------------------------

default_name

General flags:
     imin    =       0, nmropt  =       0

Nature and format of input:
     ntx     =       5, irest   =       1, ntrx    =       1

Nature and format of output:
     ntxo    =       2, ntpr    =   50000, ntrx    =       1, ntwr    =   50000
     iwrap   =       1, ntwx    =   50000, ntwv    =       0, ntwe    =       0
     ioutfm  =       1, ntwprt  =       0, idecomp =       0, rbornstat=      0

Potential function:
     ntf     =       2, ntb     =       2, igb     =       0, nsnb    =      25
     ipol    =       0, gbsa    =       0, iesp    =       0
     dielc   =   1.00000, cut     =   9.00000, intdiel =   1.00000

Frozen or restrained atoms:
     ibelly  =       0, ntr     =       0

Molecular dynamics:
     nstlim  =  15000000, nscm    =      1000, nrespa  =         1
     t       =   0.00000, dt      =   0.00200, vlimit  =  -1.00000

Berendsen (weak-coupling) temperature regulation:
     temp0   = 300.00000, tempi   = 300.00000, tautp   =   1.00000

Pressure regulation:
     ntp     =       1
     pres0   =   1.00000, comp    =  44.60000, taup    =   1.00000

SHAKE:
     ntc     =       2, jfastw  =       0
     tol     =   0.00001

Ewald parameters:
     verbose =       0, ew_type =       0, nbflag  =       1, use_pme =       1
     vdwmeth =       1, eedmeth =       1, netfrc  =       1
     Box X =   65.033   Box Y =   75.800   Box Z =   79.993
     Alpha =   90.000   Beta  =   90.000   Gamma =   90.000
     NFFT1 =   64       NFFT2 =   80       NFFT3 =   80
     Cutoff=    9.000   Tol   =0.100E-04
     Ewald Coefficient =  0.30768
     Interpolation order =    4

--------------------------------------------------------------------------------
   3.  ATOMIC COORDINATES AND VELOCITIES
--------------------------------------------------------------------------------

default_name
 begin time read from input coords =240110.000 ps

 Number of triangulated 3-point waters found:    11958

     Sum of charges from parm topology file =  -0.00000309
     Forcing neutrality...

--------------------------------------------------------------------------------
   4.  RESULTS
 NSTEP =    50000   TIME(PS) =  240210.000  TEMP(K) =   299.42  PRESS =    95.6
 Etot   =    -96654.7530  EKtot   =     24026.5137  EPtot      =   -120681.2667
 BOND   =       662.6897  ANGLE   =      1874.7837  DIHED      =      2783.9632
 1-4 NB =       815.3382  1-4 EEL =     10725.9780  VDWAALS    =     14789.1050
 EELEC  =   -152333.1245  EHBOND  =         0.0000  RESTRAINT  =         0.0000
 EKCMT  =     10755.7135  VIRIAL  =      9941.3800  VOLUME     =    394608.6502
                                                    Density    =         1.0156
 ------------------------------------------------------------------------------

      A V E R A G E S   O V E R     300 S T E P S

 NSTEP = 15000000   TIME(PS) =  270110.000  TEMP(K) =   299.94  PRESS =     4.3
 Etot   =    -96650.5364  EKtot   =     24068.0820  EPtot      =   -120718.6184
 BOND   =       674.4526  ANGLE   =      1896.2201  DIHED      =      2817.1823
 1-4 NB =       805.1868  1-4 EEL =     10699.8336  VDWAALS    =     14842.3245
 EELEC  =   -152453.8184  EHBOND  =         0.0000  RESTRAINT  =         0.0000
 EKCMT  =     10774.2341  VIRIAL  =     10737.2301  VOLUME     =    394559.5244
                                                    Density    =         1.0157
 ------------------------------------------------------------------------------

      R M S  F L U C T U A T I O N S

 NSTEP = 15000000   TIME(PS) =  270110.000  TEMP(K) =     1.17  PRESS =   121.2
 Etot   =        45.1254  EKtot   =        94.1599  EPtot      =        99.8236
 BOND   =        20.2126  ANGLE   =        31.2043  DIHED      =        19.7472
 1-4 NB =        11.6760  1-4 EEL =        43.4725  VDWAALS    =       158.9394
 EELEC  =       209.0225  EHBOND  =         0.0000  RESTRAINT  =         0.0000
 EKCMT  =        78.6926  VIRIAL  =      1032.9382  VOLUME     =       459.6074
                                                    Density    =         0.0012
 ------------------------------------------------------------------------------
