-------------------------------------------------------
          Amber 24 PMEMD                              2024
          -------------------------------------------------------

  [-O]verwriting output

File Assignments:

 Here is the input file:

calentamiento 100 --> 300 k = 20 V=cte (ntb=1)
&cntrl
 nstlim = 10000, dt = 0.002, cut = 9., ioutfm = 1,
 ntx = 1, irest = 0, iwrap=0,
 ntpr = 500, ntwr = 500, ntwx = 500,
 tempi = 100.0, temp0 = 300.0,
 ntt = 1,
 ntb = 1,
 ntc = 2, ntf = 2,
 ntr = 1, restraint_wt = 5.0, restraintmask = ":1-227@CA"
&end
&wt
type="END",
&end

Note: ig = -1. Setting random seed to   958170 based on wallclock time in
      microseconds.

--------------------------------------------------------------------------------
   1.  RESOURCE   USE:
--------------------------------------------------------------------------------

 getting box info from netcdf restart file
 NATOM  =   39469 NTYPES =      16 NBONH =   37644 MBONA  =    1863
 NTHETH =    4046 MTHETA =    2518 NPHIH =    8186 MPHIA  =    7925
 NHPARM =       0 NPARM  =       0 NNB   =   67677 NRES   =   12191
 NBONA  =    1863 NTHETA =    2518 NPHIA =    7925 NUMBND =      81
 NUMANG =     188 NPTRA  =     202 NATYP =      40 NPHB   =       0
 IFBOX  =       1 NMXRS  =      30 IFCAP =       0 NEXTRA =       0
 NCOPY  =       0

     BOX TYPE: RECTILINEAR

--------------------------------------------------------------------------------
   2.  CONTROL  DATA  FOR  THE  RUN
--------------------------------------------------------------------------------

default_name

General flags:
     imin    =       0, nmropt  =       0

Nature and format of input:
     ntx     =       1, irest   =       0, ntrx    =       1

Nature and format of output:
     ntxo    =       2, ntpr    =     500, ntrx    =       1, ntwr    =     500
     iwrap   =       0, ntwx    =     500, ntwv    =       0, ntwe    =       0
     ioutfm  =       1, ntwprt  =       0, idecomp =       0, rbornstat=      0

Potential function:
     ntf     =       2, ntb     =       1, igb     =       0, nsnb    =      25
     ipol    =       0, gbsa    =       0, iesp    =       0
     dielc   =   1.00000, cut     =   9.00000, intdiel =   1.00000

Frozen or restrained atoms:
     ibelly  =       0, ntr     =       1
     restraint_wt =   5.00000

Molecular dynamics:
     nstlim  =     10000, nscm    =         0, nrespa  =         1
     t       =   0.00000, dt      =   0.00200, vlimit  =  -1.00000

Berendsen (weak-coupling) temperature regulation:
     temp0   = 300.00000, tempi   = 100.00000, tautp   =   1.00000

SHAKE:
     ntc     =       2, jfastw  =       0
     tol     =   0.00001

Ewald parameters:
     verbose =       0, ew_type =       0, nbflag  =       1, use_pme =       1
     vdwmeth =       1, eedmeth =       1, netfrc  =       1
     Box X =   69.769   Box Y =   81.320   Box Z =   85.819
     Alpha =   90.000   Beta  =   90.000   Gamma =   90.000
     NFFT1 =   72       NFFT2 =   84       NFFT3 =   96
     Cutoff=    9.000   Tol   =0.100E-04
     Ewald Coefficient =  0.30768
     Interpolation order =    4

    LOADING THE CONSTRAINED ATOMS AS GROUPS

   5.  REFERENCE ATOM COORDINATES

  default_name
     Mask :1-227@CA; matches   226 atoms

--------------------------------------------------------------------------------
   3.  ATOMIC COORDINATES AND VELOCITIES
--------------------------------------------------------------------------------

default_name
 begin time read from input coords =     0.000 ps

 Number of triangulated 3-point waters found:    11958

     Sum of charges from parm topology file =  -0.00000309
     Forcing neutrality...

--------------------------------------------------------------------------------
   4.  RESULTS
 NSTEP =        0   TIME(PS) =       0.000  TEMP(K) =   146.49  PRESS =     0.0
 Etot   =   -161960.8554  EKtot   =     11754.8470  EPtot      =   -173715.7024
 BOND   =        98.2458  ANGLE   =       552.1204  DIHED      =      2614.6726
 1-4 NB =       723.7672  1-4 EEL =     10896.4147  VDWAALS    =     34998.2244
 EELEC  =   -223599.1475  EHBOND  =         0.0000  RESTRAINT  =         0.0000
 ------------------------------------------------------------------------------

      A V E R A G E S   O V E R      20 S T E P S

 NSTEP =    10000   TIME(PS) =      20.000  TEMP(K) =   277.50  PRESS =     0.0
 Etot   =    -99089.1210  EKtot   =     22267.8042  EPtot      =   -121356.9251
 BOND   =       633.3000  ANGLE   =      1817.8442  DIHED      =      2895.4298
 1-4 NB =       814.2524  1-4 EEL =     10822.7714  VDWAALS    =     15859.1078
 EELEC  =   -154269.9743  EHBOND  =         0.0000  RESTRAINT  =        70.3436
 EAMBER (non-restraint)  =   -121427.2688
 ------------------------------------------------------------------------------

      R M S  F L U C T U A T I O N S

 NSTEP =    10000   TIME(PS) =      20.000  TEMP(K) =    38.19  PRESS =     0.0
 Etot   =      7829.8433  EKtot   =      3064.6734  EPtot      =      4770.5637
 BOND   =        84.7416  ANGLE   =       196.2375  DIHED      =        41.4508
 1-4 NB =        19.2422  1-4 EEL =        28.1307  VDWAALS    =      1854.8013
 EELEC  =      6295.5581  EHBOND  =         0.0000  RESTRAINT  =         7.2974
 EAMBER (non-restraint)  =      4763.2663
 ------------------------------------------------------------------------------
