-------------------------------------------------------
          Amber 24 PMEMD                              2024
          -------------------------------------------------------

  [-O]verwriting output

File Assignments:

 Here is the input file:

eq2 temp = 300, k = 7.5 V=cte (ntb=1)
&cntrl
 nstlim = 10000, dt = 0.002,
 ntx = 7, irest = 1, iwrap=0, cut = 9.0, ioutfm = 1,
 ntpr = 500, ntwr = 500, ntwx = 500,
 tempi = 300., temp0 = 300.,
 ntt = 1,
 ntb = 1,
 ntc = 2, ntf = 2,
 ntr = 1,
 restraint_wt = 1.5, restraintmask = ":1-227@CA"
&end

Note: ig = -1. Setting random seed to   951312 based on wallclock time in
      microseconds.

--------------------------------------------------------------------------------
   1.  RESOURCE   USE:
--------------------------------------------------------------------------------

 getting box info from netcdf restart file
 NATOM  =   39469 NTYPES =      16 NBONH =   37644 MBONA  =    1863
 NTHETH =    4046 MTHETA =    2518 NPHIH =    8186 MPHIA  =    7925
 NHPARM =       0 NPARM  =       0 NNB   =   67677 NRES   =   12191
 NBONA  =    1863 NTHETA =    2518 NPHIA =    7925 NUMBND =      81
 NUMANG =     188 NPTRA  =     202 NATYP =      40 NPHB   =       0
 IFBOX  =       1 NMXRS  =      30 IFCAP =       0 NEXTRA =       0
 NCOPY  =       0

     BOX TYPE: RECTILINEAR

--------------------------------------------------------------------------------
   2.  CONTROL  DATA  FOR  THE  RUN
--------------------------------------------------------------------------------

default_name

General flags:
     imin    =       0, nmropt  =       0

Nature and format of input:
     ntx     =       7, irest   =       1, ntrx    =       1

Nature and format of output:
     ntxo    =       2, ntpr    =     500, ntrx    =       1, ntwr    =     500
     iwrap   =       0, ntwx    =     500, ntwv    =       0, ntwe    =       0
     ioutfm  =       1, ntwprt  =       0, idecomp =       0, rbornstat=      0

Potential function:
     ntf     =       2, ntb     =       1, igb     =       0, nsnb    =      25
     ipol    =       0, gbsa    =       0, iesp    =       0
     dielc   =   1.00000, cut     =   9.00000, intdiel =   1.00000

Frozen or restrained atoms:
     ibelly  =       0, ntr     =       1
     restraint_wt =   1.50000

Molecular dynamics:
     nstlim  =     10000, nscm    =         0, nrespa  =         1
     t       =   0.00000, dt      =   0.00200, vlimit  =  -1.00000

Berendsen (weak-coupling) temperature regulation:
     temp0   = 300.00000, tempi   = 300.00000, tautp   =   1.00000

SHAKE:
     ntc     =       2, jfastw  =       0
     tol     =   0.00001

Ewald parameters:
     verbose =       0, ew_type =       0, nbflag  =       1, use_pme =       1
     vdwmeth =       1, eedmeth =       1, netfrc  =       1
     Box X =   69.769   Box Y =   81.320   Box Z =   85.819
     Alpha =   90.000   Beta  =   90.000   Gamma =   90.000
     NFFT1 =   72       NFFT2 =   84       NFFT3 =   96
     Cutoff=    9.000   Tol   =0.100E-04
     Ewald Coefficient =  0.30768
     Interpolation order =    4

    LOADING THE CONSTRAINED ATOMS AS GROUPS

   5.  REFERENCE ATOM COORDINATES

  default_name
     Mask :1-227@CA; matches   226 atoms

--------------------------------------------------------------------------------
   3.  ATOMIC COORDINATES AND VELOCITIES
--------------------------------------------------------------------------------

default_name
 begin time read from input coords =    40.000 ps

 Number of triangulated 3-point waters found:    11958

     Sum of charges from parm topology file =  -0.00000309
     Forcing neutrality...

--------------------------------------------------------------------------------
   4.  RESULTS
 NSTEP =      500   TIME(PS) =      41.000  TEMP(K) =   299.92  PRESS =     0.0
 Etot   =    -94211.7849  EKtot   =     24067.0195  EPtot      =   -118278.8044
 BOND   =       618.8885  ANGLE   =      1892.3104  DIHED      =      2902.3775
 1-4 NB =       826.4084  1-4 EEL =     10850.2431  VDWAALS    =     14699.0493
 EELEC  =   -150113.6861  EHBOND  =         0.0000  RESTRAINT  =        45.6045
 EAMBER (non-restraint)  =   -118324.4089
 ------------------------------------------------------------------------------

      A V E R A G E S   O V E R      20 S T E P S

 NSTEP =    10000   TIME(PS) =      60.000  TEMP(K) =   300.12  PRESS =     0.0
 Etot   =    -94227.7352  EKtot   =     24083.2540  EPtot      =   -118310.9892
 BOND   =       665.3332  ANGLE   =      1877.6388  DIHED      =      2896.1799
 1-4 NB =       808.4744  1-4 EEL =     10793.6807  VDWAALS    =     14528.9235
 EELEC  =   -149926.8839  EHBOND  =         0.0000  RESTRAINT  =        45.6642
 EAMBER (non-restraint)  =   -118356.6534
 ------------------------------------------------------------------------------

      R M S  F L U C T U A T I O N S

 NSTEP =    10000   TIME(PS) =      60.000  TEMP(K) =     1.10  PRESS =     0.0
 Etot   =        24.4555  EKtot   =        88.4872  EPtot      =        85.1999
 BOND   =        22.3889  ANGLE   =        23.7359  DIHED      =        16.6002
 1-4 NB =        10.4095  1-4 EEL =        35.5603  VDWAALS    =       129.8068
 EELEC  =       167.2707  EHBOND  =         0.0000  RESTRAINT  =         4.5358
 EAMBER (non-restraint)  =        80.6642
 ------------------------------------------------------------------------------
