-------------------------------------------------------
          Amber 24 PMEMD                              2024
          -------------------------------------------------------

  [-O]verwriting output

File Assignments:

 Here is the input file:

md 5 ns temp = 300 P=cte (ntb=2,ntp=1) No restraints
&cntrl
 nstlim = 15000000, dt = 0.002,
 ntx = 5, irest = 1, cut = 9.0, ioutfm = 1,
 ntpr = 50000, ntwr = 50000, ntwx = 50000,
 iwrap = 1,
 tempi = 300., temp0 = 300.,
 ntt = 1,
 ntb = 2, ntp = 1,
 ntc = 2, ntf = 2,
 ntr = 0,
&end

Note: ig = -1. Setting random seed to   491911 based on wallclock time in
      microseconds.

--------------------------------------------------------------------------------
   1.  RESOURCE   USE:
--------------------------------------------------------------------------------

 getting box info from netcdf restart file
 NATOM  =   39469 NTYPES =      16 NBONH =   37644 MBONA  =    1863
 NTHETH =    4046 MTHETA =    2518 NPHIH =    8186 MPHIA  =    7925
 NHPARM =       0 NPARM  =       0 NNB   =   67677 NRES   =   12191
 NBONA  =    1863 NTHETA =    2518 NPHIA =    7925 NUMBND =      81
 NUMANG =     188 NPTRA  =     202 NATYP =      40 NPHB   =       0
 IFBOX  =       1 NMXRS  =      30 IFCAP =       0 NEXTRA =       0
 NCOPY  =       0

     BOX TYPE: RECTILINEAR

--------------------------------------------------------------------------------
   2.  CONTROL  DATA  FOR  THE  RUN
--------------------------------------------------------------------------------

default_name

General flags:
     imin    =       0, nmropt  =       0

Nature and format of input:
     ntx     =       5, irest   =       1, ntrx    =       1

Nature and format of output:
     ntxo    =       2, ntpr    =   50000, ntrx    =       1, ntwr    =   50000
     iwrap   =       1, ntwx    =   50000, ntwv    =       0, ntwe    =       0
     ioutfm  =       1, ntwprt  =       0, idecomp =       0, rbornstat=      0

Potential function:
     ntf     =       2, ntb     =       2, igb     =       0, nsnb    =      25
     ipol    =       0, gbsa    =       0, iesp    =       0
     dielc   =   1.00000, cut     =   9.00000, intdiel =   1.00000

Frozen or restrained atoms:
     ibelly  =       0, ntr     =       0

Molecular dynamics:
     nstlim  =  15000000, nscm    =      1000, nrespa  =         1
     t       =   0.00000, dt      =   0.00200, vlimit  =  -1.00000

Berendsen (weak-coupling) temperature regulation:
     temp0   = 300.00000, tempi   = 300.00000, tautp   =   1.00000

Pressure regulation:
     ntp     =       1
     pres0   =   1.00000, comp    =  44.60000, taup    =   1.00000

SHAKE:
     ntc     =       2, jfastw  =       0
     tol     =   0.00001

Ewald parameters:
     verbose =       0, ew_type =       0, nbflag  =       1, use_pme =       1
     vdwmeth =       1, eedmeth =       1, netfrc  =       1
     Box X =   64.999   Box Y =   75.761   Box Z =   79.951
     Alpha =   90.000   Beta  =   90.000   Gamma =   90.000
     NFFT1 =   64       NFFT2 =   80       NFFT3 =   80
     Cutoff=    9.000   Tol   =0.100E-04
     Ewald Coefficient =  0.30768
     Interpolation order =    4

--------------------------------------------------------------------------------
   3.  ATOMIC COORDINATES AND VELOCITIES
--------------------------------------------------------------------------------

default_name
 begin time read from input coords =150110.000 ps

 Number of triangulated 3-point waters found:    11958

     Sum of charges from parm topology file =  -0.00000309
     Forcing neutrality...

--------------------------------------------------------------------------------
   4.  RESULTS
 NSTEP =    50000   TIME(PS) =  150210.000  TEMP(K) =   298.71  PRESS =   155.1
 Etot   =    -96713.9241  EKtot   =     23969.3574  EPtot      =   -120683.2815
 BOND   =       713.6142  ANGLE   =      1939.0933  DIHED      =      2840.0430
 1-4 NB =       799.4530  1-4 EEL =     10687.3111  VDWAALS    =     14920.3329
 EELEC  =   -152583.1290  EHBOND  =         0.0000  RESTRAINT  =         0.0000
 EKCMT  =     10811.5526  VIRIAL  =      9489.1293  VOLUME     =    394864.3271
                                                    Density    =         1.0150
 ------------------------------------------------------------------------------

      A V E R A G E S   O V E R     300 S T E P S

 NSTEP = 15000000   TIME(PS) =  180110.000  TEMP(K) =   299.98  PRESS =     3.0
 Etot   =    -96644.1435  EKtot   =     24071.5656  EPtot      =   -120715.7090
 BOND   =       672.5779  ANGLE   =      1897.5392  DIHED      =      2821.6002
 1-4 NB =       803.1014  1-4 EEL =     10697.1344  VDWAALS    =     14850.0336
 EELEC  =   -152457.6956  EHBOND  =         0.0000  RESTRAINT  =         0.0000
 EKCMT  =     10770.0473  VIRIAL  =     10744.0990  VOLUME     =    394632.7460
                                                    Density    =         1.0156
 ------------------------------------------------------------------------------

      R M S  F L U C T U A T I O N S

 NSTEP = 15000000   TIME(PS) =  180110.000  TEMP(K) =     1.16  PRESS =   114.2
 Etot   =        44.1376  EKtot   =        93.3818  EPtot      =       101.0690
 BOND   =        20.4698  ANGLE   =        31.2115  DIHED      =        19.1506
 1-4 NB =        12.1591  1-4 EEL =        39.3241  VDWAALS    =       146.3685
 EELEC  =       195.9975  EHBOND  =         0.0000  RESTRAINT  =         0.0000
 EKCMT  =        70.6971  VIRIAL  =       978.1962  VOLUME     =       488.3718
                                                    Density    =         0.0013
 ------------------------------------------------------------------------------
