-------------------------------------------------------
          Amber 24 PMEMD                              2024
          -------------------------------------------------------

  [-O]verwriting output

File Assignments:

 Here is the input file:

eq1 temp = 300, k = 15 V=cte (ntb=1)
&cntrl
 nstlim = 10000, dt = 0.002,
 ntx = 7, irest = 1, iwrap=0, cut=9., ioutfm = 1,
 ntpr = 500, ntwr = 500, ntwx =500,
 tempi = 300., temp0 = 300.,
 ntt = 1,
 ntb = 1,
 ntc = 2, ntf = 2,
 ntr = 1,
 restraint_wt = 2.0, restraintmask = ":1-227@CA"
&end

Note: ig = -1. Setting random seed to   924583 based on wallclock time in
      microseconds.

--------------------------------------------------------------------------------
   1.  RESOURCE   USE:
--------------------------------------------------------------------------------

 getting box info from netcdf restart file
 NATOM  =   39469 NTYPES =      16 NBONH =   37644 MBONA  =    1863
 NTHETH =    4046 MTHETA =    2518 NPHIH =    8186 MPHIA  =    7925
 NHPARM =       0 NPARM  =       0 NNB   =   67677 NRES   =   12191
 NBONA  =    1863 NTHETA =    2518 NPHIA =    7925 NUMBND =      81
 NUMANG =     188 NPTRA  =     202 NATYP =      40 NPHB   =       0
 IFBOX  =       1 NMXRS  =      30 IFCAP =       0 NEXTRA =       0
 NCOPY  =       0

     BOX TYPE: RECTILINEAR

--------------------------------------------------------------------------------
   2.  CONTROL  DATA  FOR  THE  RUN
--------------------------------------------------------------------------------

default_name

General flags:
     imin    =       0, nmropt  =       0

Nature and format of input:
     ntx     =       7, irest   =       1, ntrx    =       1

Nature and format of output:
     ntxo    =       2, ntpr    =     500, ntrx    =       1, ntwr    =     500
     iwrap   =       0, ntwx    =     500, ntwv    =       0, ntwe    =       0
     ioutfm  =       1, ntwprt  =       0, idecomp =       0, rbornstat=      0

Potential function:
     ntf     =       2, ntb     =       1, igb     =       0, nsnb    =      25
     ipol    =       0, gbsa    =       0, iesp    =       0
     dielc   =   1.00000, cut     =   9.00000, intdiel =   1.00000

Frozen or restrained atoms:
     ibelly  =       0, ntr     =       1
     restraint_wt =   2.00000

Molecular dynamics:
     nstlim  =     10000, nscm    =         0, nrespa  =         1
     t       =   0.00000, dt      =   0.00200, vlimit  =  -1.00000

Berendsen (weak-coupling) temperature regulation:
     temp0   = 300.00000, tempi   = 300.00000, tautp   =   1.00000

SHAKE:
     ntc     =       2, jfastw  =       0
     tol     =   0.00001

Ewald parameters:
     verbose =       0, ew_type =       0, nbflag  =       1, use_pme =       1
     vdwmeth =       1, eedmeth =       1, netfrc  =       1
     Box X =   69.769   Box Y =   81.320   Box Z =   85.819
     Alpha =   90.000   Beta  =   90.000   Gamma =   90.000
     NFFT1 =   72       NFFT2 =   84       NFFT3 =   96
     Cutoff=    9.000   Tol   =0.100E-04
     Ewald Coefficient =  0.30768
     Interpolation order =    4

    LOADING THE CONSTRAINED ATOMS AS GROUPS

   5.  REFERENCE ATOM COORDINATES

  default_name
     Mask :1-227@CA; matches   226 atoms

--------------------------------------------------------------------------------
   3.  ATOMIC COORDINATES AND VELOCITIES
--------------------------------------------------------------------------------

default_name
 begin time read from input coords =    20.000 ps

 Number of triangulated 3-point waters found:    11958

     Sum of charges from parm topology file =  -0.00000309
     Forcing neutrality...

--------------------------------------------------------------------------------
   4.  RESULTS
 NSTEP =      500   TIME(PS) =      21.000  TEMP(K) =   301.26  PRESS =     0.0
 Etot   =    -94236.4320  EKtot   =     24174.6348  EPtot      =   -118411.0668
 BOND   =       704.5807  ANGLE   =      1944.9941  DIHED      =      2916.2536
 1-4 NB =       795.8788  1-4 EEL =     10805.0151  VDWAALS    =     14476.8001
 EELEC  =   -150103.5901  EHBOND  =         0.0000  RESTRAINT  =        49.0009
 EAMBER (non-restraint)  =   -118460.0677
 ------------------------------------------------------------------------------

      A V E R A G E S   O V E R      20 S T E P S

 NSTEP =    10000   TIME(PS) =      40.000  TEMP(K) =   299.78  PRESS =     0.0
 Etot   =    -94190.5163  EKtot   =     24056.1929  EPtot      =   -118246.7092
 BOND   =       675.9784  ANGLE   =      1892.9065  DIHED      =      2901.0870
 1-4 NB =       807.2857  1-4 EEL =     10783.5915  VDWAALS    =     14538.1585
 EELEC  =   -149896.2068  EHBOND  =         0.0000  RESTRAINT  =        50.4900
 EAMBER (non-restraint)  =   -118297.1992
 ------------------------------------------------------------------------------

      R M S  F L U C T U A T I O N S

 NSTEP =    10000   TIME(PS) =      40.000  TEMP(K) =     1.30  PRESS =     0.0
 Etot   =        29.9074  EKtot   =       104.4043  EPtot      =       110.1643
 BOND   =        22.2321  ANGLE   =        32.3992  DIHED      =        18.4467
 1-4 NB =         9.8172  1-4 EEL =        29.3237  VDWAALS    =       177.6922
 EELEC  =       206.5185  EHBOND  =         0.0000  RESTRAINT  =         3.7459
 EAMBER (non-restraint)  =       106.4184
 ------------------------------------------------------------------------------
