-------------------------------------------------------
          Amber 24 PMEMD                              2024
          -------------------------------------------------------

  [-O]verwriting output

File Assignments:

 Here is the input file:

eq5 temp = 300, k = 1 P=cte (ntb=2, ntp=1)
&cntrl
 nstlim = 5000, dt = 0.002,
 ntx = 7, irest = 1, iwrap = 1, cut = 9.0, ioutfm = 1,
 ntpr = 1000, ntwr = 1000, ntwx = 1000,
 tempi = 300., temp0 = 300.,
 ntt = 1,
 ntb = 2, ntp = 1,
 ntc = 2, ntf = 2,
 ntr = 1, restraint_wt = 0.1, restraintmask = ":1-227@CA"
&end
&wt
type="END",
&end

Note: ig = -1. Setting random seed to   241180 based on wallclock time in
      microseconds.

--------------------------------------------------------------------------------
   1.  RESOURCE   USE:
--------------------------------------------------------------------------------

 getting box info from netcdf restart file
 NATOM  =   39469 NTYPES =      16 NBONH =   37644 MBONA  =    1863
 NTHETH =    4046 MTHETA =    2518 NPHIH =    8186 MPHIA  =    7925
 NHPARM =       0 NPARM  =       0 NNB   =   67677 NRES   =   12191
 NBONA  =    1863 NTHETA =    2518 NPHIA =    7925 NUMBND =      81
 NUMANG =     188 NPTRA  =     202 NATYP =      40 NPHB   =       0
 IFBOX  =       1 NMXRS  =      30 IFCAP =       0 NEXTRA =       0
 NCOPY  =       0

     BOX TYPE: RECTILINEAR

--------------------------------------------------------------------------------
   2.  CONTROL  DATA  FOR  THE  RUN
--------------------------------------------------------------------------------

default_name

General flags:
     imin    =       0, nmropt  =       0

Nature and format of input:
     ntx     =       7, irest   =       1, ntrx    =       1

Nature and format of output:
     ntxo    =       2, ntpr    =    1000, ntrx    =       1, ntwr    =    1000
     iwrap   =       1, ntwx    =    1000, ntwv    =       0, ntwe    =       0
     ioutfm  =       1, ntwprt  =       0, idecomp =       0, rbornstat=      0

Potential function:
     ntf     =       2, ntb     =       2, igb     =       0, nsnb    =      25
     ipol    =       0, gbsa    =       0, iesp    =       0
     dielc   =   1.00000, cut     =   9.00000, intdiel =   1.00000

Frozen or restrained atoms:
     ibelly  =       0, ntr     =       1
     restraint_wt =   0.10000

Molecular dynamics:
     nstlim  =      5000, nscm    =         0, nrespa  =         1
     t       =   0.00000, dt      =   0.00200, vlimit  =  -1.00000

Berendsen (weak-coupling) temperature regulation:
     temp0   = 300.00000, tempi   = 300.00000, tautp   =   1.00000

Pressure regulation:
     ntp     =       1
     pres0   =   1.00000, comp    =  44.60000, taup    =   1.00000

SHAKE:
     ntc     =       2, jfastw  =       0
     tol     =   0.00001

Ewald parameters:
     verbose =       0, ew_type =       0, nbflag  =       1, use_pme =       1
     vdwmeth =       1, eedmeth =       1, netfrc  =       1
     Box X =   69.769   Box Y =   81.320   Box Z =   85.819
     Alpha =   90.000   Beta  =   90.000   Gamma =   90.000
     NFFT1 =   72       NFFT2 =   84       NFFT3 =   96
     Cutoff=    9.000   Tol   =0.100E-04
     Ewald Coefficient =  0.30768
     Interpolation order =    4

    LOADING THE CONSTRAINED ATOMS AS GROUPS

   5.  REFERENCE ATOM COORDINATES

  default_name
     Mask :1-227@CA; matches   226 atoms

--------------------------------------------------------------------------------
   3.  ATOMIC COORDINATES AND VELOCITIES
--------------------------------------------------------------------------------

default_name
 begin time read from input coords =   100.000 ps

 Number of triangulated 3-point waters found:    11958

     Sum of charges from parm topology file =  -0.00000309
     Forcing neutrality...

--------------------------------------------------------------------------------
   4.  RESULTS
 NSTEP =     1000   TIME(PS) =     102.000  TEMP(K) =   298.93  PRESS =  -420.8
 Etot   =    -94695.7675  EKtot   =     23987.7676  EPtot      =   -118683.5351
 BOND   =       626.7533  ANGLE   =      1927.7322  DIHED      =      2877.3916
 1-4 NB =       810.2175  1-4 EEL =     10810.1128  VDWAALS    =     14613.3779
 EELEC  =   -150356.8892  EHBOND  =         0.0000  RESTRAINT  =         7.7688
 EAMBER (non-restraint)  =   -118691.3039
 EKCMT  =     10716.7941  VIRIAL  =     15033.0547  VOLUME     =    475042.5906
                                                    Density    =         0.8436
 ------------------------------------------------------------------------------

      A V E R A G E S   O V E R       5 S T E P S

 NSTEP =     5000   TIME(PS) =     110.000  TEMP(K) =   299.54  PRESS =  -313.3
 Etot   =    -95097.4362  EKtot   =     24036.7426  EPtot      =   -119134.1788
 BOND   =       652.8688  ANGLE   =      1895.8995  DIHED      =      2883.1787
 1-4 NB =       804.0753  1-4 EEL =     10783.7189  VDWAALS    =     14580.8368
 EELEC  =   -150745.1799  EHBOND  =         0.0000  RESTRAINT  =        10.4231
 EAMBER (non-restraint)  =   -119144.6019
 EKCMT  =     10781.2831  VIRIAL  =     13870.4095  VOLUME     =    454936.1834
                                                    Density    =         0.8818
 ------------------------------------------------------------------------------

      R M S  F L U C T U A T I O N S

 NSTEP =     5000   TIME(PS) =     110.000  TEMP(K) =     1.52  PRESS =    70.1
 Etot   =       277.8264  EKtot   =       122.2891  EPtot      =       309.2496
 BOND   =        24.5682  ANGLE   =        23.8291  DIHED      =        15.9082
 1-4 NB =         5.4732  1-4 EEL =        29.8302  VDWAALS    =        42.6920
 EELEC  =       329.9112  EHBOND  =         0.0000  RESTRAINT  =         1.5331
 EAMBER (non-restraint)  =       307.7165
 EKCMT  =        81.1868  VIRIAL  =       700.9252  VOLUME     =     13846.6994
                                                    Density    =         0.0268
 ------------------------------------------------------------------------------
