-------------------------------------------------------
          Amber 24 PMEMD                              2024
          -------------------------------------------------------

  [-O]verwriting output

File Assignments:

 Here is the input file:

md 5 ns temp = 300 P=cte (ntb=2,ntp=1) No restraints
&cntrl
 nstlim = 15000000, dt = 0.002,
 ntx = 5, irest = 1, cut = 9.0, ioutfm = 1,
 ntpr = 50000, ntwr = 50000, ntwx = 50000,
 iwrap = 1,
 tempi = 300., temp0 = 300.,
 ntt = 1,
 ntb = 2, ntp = 1,
 ntc = 2, ntf = 2,
 ntr = 0,
&end

Note: ig = -1. Setting random seed to   827017 based on wallclock time in
      microseconds.

--------------------------------------------------------------------------------
   1.  RESOURCE   USE:
--------------------------------------------------------------------------------

 getting box info from netcdf restart file
 NATOM  =   39469 NTYPES =      16 NBONH =   37644 MBONA  =    1863
 NTHETH =    4046 MTHETA =    2518 NPHIH =    8186 MPHIA  =    7925
 NHPARM =       0 NPARM  =       0 NNB   =   67677 NRES   =   12191
 NBONA  =    1863 NTHETA =    2518 NPHIA =    7925 NUMBND =      81
 NUMANG =     188 NPTRA  =     202 NATYP =      40 NPHB   =       0
 IFBOX  =       1 NMXRS  =      30 IFCAP =       0 NEXTRA =       0
 NCOPY  =       0

     BOX TYPE: RECTILINEAR

--------------------------------------------------------------------------------
   2.  CONTROL  DATA  FOR  THE  RUN
--------------------------------------------------------------------------------

default_name

General flags:
     imin    =       0, nmropt  =       0

Nature and format of input:
     ntx     =       5, irest   =       1, ntrx    =       1

Nature and format of output:
     ntxo    =       2, ntpr    =   50000, ntrx    =       1, ntwr    =   50000
     iwrap   =       1, ntwx    =   50000, ntwv    =       0, ntwe    =       0
     ioutfm  =       1, ntwprt  =       0, idecomp =       0, rbornstat=      0

Potential function:
     ntf     =       2, ntb     =       2, igb     =       0, nsnb    =      25
     ipol    =       0, gbsa    =       0, iesp    =       0
     dielc   =   1.00000, cut     =   9.00000, intdiel =   1.00000

Frozen or restrained atoms:
     ibelly  =       0, ntr     =       0

Molecular dynamics:
     nstlim  =  15000000, nscm    =      1000, nrespa  =         1
     t       =   0.00000, dt      =   0.00200, vlimit  =  -1.00000

Berendsen (weak-coupling) temperature regulation:
     temp0   = 300.00000, tempi   = 300.00000, tautp   =   1.00000

Pressure regulation:
     ntp     =       1
     pres0   =   1.00000, comp    =  44.60000, taup    =   1.00000

SHAKE:
     ntc     =       2, jfastw  =       0
     tol     =   0.00001

Ewald parameters:
     verbose =       0, ew_type =       0, nbflag  =       1, use_pme =       1
     vdwmeth =       1, eedmeth =       1, netfrc  =       1
     Box X =   67.211   Box Y =   78.339   Box Z =   82.672
     Alpha =   90.000   Beta  =   90.000   Gamma =   90.000
     NFFT1 =   64       NFFT2 =   80       NFFT3 =   84
     Cutoff=    9.000   Tol   =0.100E-04
     Ewald Coefficient =  0.30768
     Interpolation order =    4

--------------------------------------------------------------------------------
   3.  ATOMIC COORDINATES AND VELOCITIES
--------------------------------------------------------------------------------

Cpptraj Generated Restart
 begin time read from input coords =   110.000 ps

 Number of triangulated 3-point waters found:    11958

     Sum of charges from parm topology file =  -0.00000309
     Forcing neutrality...

--------------------------------------------------------------------------------
   4.  RESULTS
 NSTEP =    50000   TIME(PS) =     210.000  TEMP(K) =   298.74  PRESS =   -42.5
 Etot   =    -96543.1233  EKtot   =     23971.3984  EPtot      =   -120514.5218
 BOND   =       688.1605  ANGLE   =      2014.0798  DIHED      =      2881.0516
 1-4 NB =       788.7942  1-4 EEL =     10740.9511  VDWAALS    =     14693.8177
 EELEC  =   -152321.3769  EHBOND  =         0.0000  RESTRAINT  =         0.0000
 EKCMT  =     10746.4499  VIRIAL  =     11108.7387  VOLUME     =    394537.2256
                                                    Density    =         1.0158
 ------------------------------------------------------------------------------

      A V E R A G E S   O V E R     300 S T E P S

 NSTEP = 15000000   TIME(PS) =   30110.000  TEMP(K) =   300.02  PRESS =    -6.2
 Etot   =    -96596.0193  EKtot   =     24074.7328  EPtot      =   -120670.7521
 BOND   =       674.3148  ANGLE   =      1896.8113  DIHED      =      2835.8014
 1-4 NB =       803.3390  1-4 EEL =     10672.0275  VDWAALS    =     14842.8181
 EELEC  =   -152395.8642  EHBOND  =         0.0000  RESTRAINT  =         0.0000
 EKCMT  =     10776.0634  VIRIAL  =     10828.5786  VOLUME     =    394722.1468
                                                    Density    =         1.0153
 ------------------------------------------------------------------------------

      R M S  F L U C T U A T I O N S

 NSTEP = 15000000   TIME(PS) =   30110.000  TEMP(K) =     1.11  PRESS =   114.2
 Etot   =        41.9709  EKtot   =        89.2659  EPtot      =       100.6730
 BOND   =        20.0158  ANGLE   =        37.3159  DIHED      =        22.7876
 1-4 NB =        11.2659  1-4 EEL =        44.5001  VDWAALS    =       148.3553
 EELEC  =       193.9320  EHBOND  =         0.0000  RESTRAINT  =         0.0000
 EKCMT  =        74.6720  VIRIAL  =       978.0172  VOLUME     =       464.9246
                                                    Density    =         0.0012
 ------------------------------------------------------------------------------
