-------------------------------------------------------
          Amber 24 PMEMD                              2024
          -------------------------------------------------------

  [-O]verwriting output

File Assignments:

 Here is the input file:

md 5 ns temp = 300 P=cte (ntb=2,ntp=1) No restraints
&cntrl
 nstlim = 15000000, dt = 0.002,
 ntx = 5, irest = 1, cut = 9.0, ioutfm = 1,
 ntpr = 50000, ntwr = 50000, ntwx = 50000,
 iwrap = 1,
 tempi = 300., temp0 = 300.,
 ntt = 1,
 ntb = 2, ntp = 1,
 ntc = 2, ntf = 2,
 ntr = 0,
&end

Note: ig = -1. Setting random seed to   638957 based on wallclock time in
      microseconds.

--------------------------------------------------------------------------------
   1.  RESOURCE   USE:
--------------------------------------------------------------------------------

 getting box info from netcdf restart file
 NATOM  =   39469 NTYPES =      16 NBONH =   37644 MBONA  =    1863
 NTHETH =    4046 MTHETA =    2518 NPHIH =    8186 MPHIA  =    7925
 NHPARM =       0 NPARM  =       0 NNB   =   67677 NRES   =   12191
 NBONA  =    1863 NTHETA =    2518 NPHIA =    7925 NUMBND =      81
 NUMANG =     188 NPTRA  =     202 NATYP =      40 NPHB   =       0
 IFBOX  =       1 NMXRS  =      30 IFCAP =       0 NEXTRA =       0
 NCOPY  =       0

     BOX TYPE: RECTILINEAR

--------------------------------------------------------------------------------
   2.  CONTROL  DATA  FOR  THE  RUN
--------------------------------------------------------------------------------

default_name

General flags:
     imin    =       0, nmropt  =       0

Nature and format of input:
     ntx     =       5, irest   =       1, ntrx    =       1

Nature and format of output:
     ntxo    =       2, ntpr    =   50000, ntrx    =       1, ntwr    =   50000
     iwrap   =       1, ntwx    =   50000, ntwv    =       0, ntwe    =       0
     ioutfm  =       1, ntwprt  =       0, idecomp =       0, rbornstat=      0

Potential function:
     ntf     =       2, ntb     =       2, igb     =       0, nsnb    =      25
     ipol    =       0, gbsa    =       0, iesp    =       0
     dielc   =   1.00000, cut     =   9.00000, intdiel =   1.00000

Frozen or restrained atoms:
     ibelly  =       0, ntr     =       0

Molecular dynamics:
     nstlim  =  15000000, nscm    =      1000, nrespa  =         1
     t       =   0.00000, dt      =   0.00200, vlimit  =  -1.00000

Berendsen (weak-coupling) temperature regulation:
     temp0   = 300.00000, tempi   = 300.00000, tautp   =   1.00000

Pressure regulation:
     ntp     =       1
     pres0   =   1.00000, comp    =  44.60000, taup    =   1.00000

SHAKE:
     ntc     =       2, jfastw  =       0
     tol     =   0.00001

Ewald parameters:
     verbose =       0, ew_type =       0, nbflag  =       1, use_pme =       1
     vdwmeth =       1, eedmeth =       1, netfrc  =       1
     Box X =   65.034   Box Y =   75.801   Box Z =   79.994
     Alpha =   90.000   Beta  =   90.000   Gamma =   90.000
     NFFT1 =   64       NFFT2 =   80       NFFT3 =   80
     Cutoff=    9.000   Tol   =0.100E-04
     Ewald Coefficient =  0.30768
     Interpolation order =    4

--------------------------------------------------------------------------------
   3.  ATOMIC COORDINATES AND VELOCITIES
--------------------------------------------------------------------------------

default_name
 begin time read from input coords =180110.000 ps

 Number of triangulated 3-point waters found:    11958

     Sum of charges from parm topology file =  -0.00000309
     Forcing neutrality...

--------------------------------------------------------------------------------
   4.  RESULTS
 NSTEP =    50000   TIME(PS) =  180210.000  TEMP(K) =   300.67  PRESS =   171.4
 Etot   =    -96599.6096  EKtot   =     24126.5820  EPtot      =   -120726.1916
 BOND   =       635.0540  ANGLE   =      1906.7179  DIHED      =      2825.0214
 1-4 NB =       801.7281  1-4 EEL =     10671.2851  VDWAALS    =     14859.2604
 EELEC  =   -152425.2584  EHBOND  =         0.0000  RESTRAINT  =         0.0000
 EKCMT  =     10787.6016  VIRIAL  =      9328.5219  VOLUME     =    394353.5410
                                                    Density    =         1.0163
 ------------------------------------------------------------------------------

      A V E R A G E S   O V E R     300 S T E P S

 NSTEP = 15000000   TIME(PS) =  210110.000  TEMP(K) =   299.87  PRESS =     4.2
 Etot   =    -96634.3823  EKtot   =     24062.6762  EPtot      =   -120697.0585
 BOND   =       676.3136  ANGLE   =      1902.2868  DIHED      =      2828.0787
 1-4 NB =       805.2667  1-4 EEL =     10706.2019  VDWAALS    =     14839.3993
 EELEC  =   -152454.6055  EHBOND  =         0.0000  RESTRAINT  =         0.0000
 EKCMT  =     10767.1800  VIRIAL  =     10731.6283  VOLUME     =    394539.3544
                                                    Density    =         1.0158
 ------------------------------------------------------------------------------

      R M S  F L U C T U A T I O N S

 NSTEP = 15000000   TIME(PS) =  210110.000  TEMP(K) =     1.13  PRESS =   121.2
 Etot   =        49.7496  EKtot   =        90.8802  EPtot      =       107.4927
 BOND   =        22.0965  ANGLE   =        31.7757  DIHED      =        20.2322
 1-4 NB =        11.1285  1-4 EEL =        38.9022  VDWAALS    =       149.4233
 EELEC  =       207.7272  EHBOND  =         0.0000  RESTRAINT  =         0.0000
 EKCMT  =        70.8398  VIRIAL  =      1037.4862  VOLUME     =       466.1138
                                                    Density    =         0.0012
 ------------------------------------------------------------------------------
