-------------------------------------------------------
          Amber 24 PMEMD                              2024
          -------------------------------------------------------

  [-O]verwriting output

File Assignments:

 Here is the input file:

md 5 ns temp = 300 P=cte (ntb=2,ntp=1) No restraints
&cntrl
 nstlim = 15000000, dt = 0.002,
 ntx = 5, irest = 1, cut = 9.0, ioutfm = 1,
 ntpr = 50000, ntwr = 50000, ntwx = 50000,
 iwrap = 1,
 tempi = 300., temp0 = 300.,
 ntt = 1,
 ntb = 2, ntp = 1,
 ntc = 2, ntf = 2,
 ntr = 0,
&end

Note: ig = -1. Setting random seed to   629147 based on wallclock time in
      microseconds.

--------------------------------------------------------------------------------
   1.  RESOURCE   USE:
--------------------------------------------------------------------------------

 getting box info from netcdf restart file
 NATOM  =   39469 NTYPES =      16 NBONH =   37644 MBONA  =    1863
 NTHETH =    4046 MTHETA =    2518 NPHIH =    8186 MPHIA  =    7925
 NHPARM =       0 NPARM  =       0 NNB   =   67677 NRES   =   12191
 NBONA  =    1863 NTHETA =    2518 NPHIA =    7925 NUMBND =      81
 NUMANG =     188 NPTRA  =     202 NATYP =      40 NPHB   =       0
 IFBOX  =       1 NMXRS  =      30 IFCAP =       0 NEXTRA =       0
 NCOPY  =       0

     BOX TYPE: RECTILINEAR

--------------------------------------------------------------------------------
   2.  CONTROL  DATA  FOR  THE  RUN
--------------------------------------------------------------------------------

default_name

General flags:
     imin    =       0, nmropt  =       0

Nature and format of input:
     ntx     =       5, irest   =       1, ntrx    =       1

Nature and format of output:
     ntxo    =       2, ntpr    =   50000, ntrx    =       1, ntwr    =   50000
     iwrap   =       1, ntwx    =   50000, ntwv    =       0, ntwe    =       0
     ioutfm  =       1, ntwprt  =       0, idecomp =       0, rbornstat=      0

Potential function:
     ntf     =       2, ntb     =       2, igb     =       0, nsnb    =      25
     ipol    =       0, gbsa    =       0, iesp    =       0
     dielc   =   1.00000, cut     =   9.00000, intdiel =   1.00000

Frozen or restrained atoms:
     ibelly  =       0, ntr     =       0

Molecular dynamics:
     nstlim  =  15000000, nscm    =      1000, nrespa  =         1
     t       =   0.00000, dt      =   0.00200, vlimit  =  -1.00000

Berendsen (weak-coupling) temperature regulation:
     temp0   = 300.00000, tempi   = 300.00000, tautp   =   1.00000

Pressure regulation:
     ntp     =       1
     pres0   =   1.00000, comp    =  44.60000, taup    =   1.00000

SHAKE:
     ntc     =       2, jfastw  =       0
     tol     =   0.00001

Ewald parameters:
     verbose =       0, ew_type =       0, nbflag  =       1, use_pme =       1
     vdwmeth =       1, eedmeth =       1, netfrc  =       1
     Box X =   65.046   Box Y =   75.815   Box Z =   80.009
     Alpha =   90.000   Beta  =   90.000   Gamma =   90.000
     NFFT1 =   64       NFFT2 =   80       NFFT3 =   84
     Cutoff=    9.000   Tol   =0.100E-04
     Ewald Coefficient =  0.30768
     Interpolation order =    4

--------------------------------------------------------------------------------
   3.  ATOMIC COORDINATES AND VELOCITIES
--------------------------------------------------------------------------------

default_name
 begin time read from input coords =210110.000 ps

 Number of triangulated 3-point waters found:    11958

     Sum of charges from parm topology file =  -0.00000309
     Forcing neutrality...

--------------------------------------------------------------------------------
   4.  RESULTS
 NSTEP =    50000   TIME(PS) =  210210.000  TEMP(K) =   297.77  PRESS =   -50.3
 Etot   =    -96764.2454  EKtot   =     23893.9863  EPtot      =   -120658.2318
 BOND   =       726.3526  ANGLE   =      1942.8519  DIHED      =      2831.3551
 1-4 NB =       797.8275  1-4 EEL =     10714.5454  VDWAALS    =     14928.8609
 EELEC  =   -152600.0251  EHBOND  =         0.0000  RESTRAINT  =         0.0000
 EKCMT  =     10650.4063  VIRIAL  =     11078.0502  VOLUME     =    393737.9471
                                                    Density    =         1.0179
 ------------------------------------------------------------------------------

      A V E R A G E S   O V E R     300 S T E P S

 NSTEP = 15000000   TIME(PS) =  240110.000  TEMP(K) =   299.91  PRESS =    -3.7
 Etot   =    -96641.7437  EKtot   =     24065.8676  EPtot      =   -120707.6113
 BOND   =       676.8718  ANGLE   =      1894.6765  DIHED      =      2821.7629
 1-4 NB =       804.1031  1-4 EEL =     10684.4809  VDWAALS    =     14838.3343
 EELEC  =   -152427.8407  EHBOND  =         0.0000  RESTRAINT  =         0.0000
 EKCMT  =     10772.6899  VIRIAL  =     10804.2615  VOLUME     =    394576.9891
                                                    Density    =         1.0157
 ------------------------------------------------------------------------------

      R M S  F L U C T U A T I O N S

 NSTEP = 15000000   TIME(PS) =  240110.000  TEMP(K) =     1.15  PRESS =   124.9
 Etot   =        44.4404  EKtot   =        91.9211  EPtot      =       102.5421
 BOND   =        21.2060  ANGLE   =        31.7174  DIHED      =        19.4446
 1-4 NB =        11.7019  1-4 EEL =        41.5596  VDWAALS    =       153.7067
 EELEC  =       203.5129  EHBOND  =         0.0000  RESTRAINT  =         0.0000
 EKCMT  =        74.4214  VIRIAL  =      1064.3195  VOLUME     =       471.6095
                                                    Density    =         0.0012
 ------------------------------------------------------------------------------
