-------------------------------------------------------
          Amber 24 PMEMD                              2024
          -------------------------------------------------------

  [-O]verwriting output

File Assignments:

 Here is the input file:

md 5 ns temp = 300 P=cte (ntb=2,ntp=1) No restraints
&cntrl
 nstlim = 15000000, dt = 0.002,
 ntx = 5, irest = 1, cut = 9.0, ioutfm = 1,
 ntpr = 50000, ntwr = 50000, ntwx = 50000,
 iwrap = 1,
 tempi = 300., temp0 = 300.,
 ntt = 1,
 ntb = 2, ntp = 1,
 ntc = 2, ntf = 2,
 ntr = 0,
&end

Note: ig = -1. Setting random seed to   983217 based on wallclock time in
      microseconds.

--------------------------------------------------------------------------------
   1.  RESOURCE   USE:
--------------------------------------------------------------------------------

 getting box info from netcdf restart file
 NATOM  =   39469 NTYPES =      16 NBONH =   37644 MBONA  =    1863
 NTHETH =    4046 MTHETA =    2518 NPHIH =    8186 MPHIA  =    7925
 NHPARM =       0 NPARM  =       0 NNB   =   67677 NRES   =   12191
 NBONA  =    1863 NTHETA =    2518 NPHIA =    7925 NUMBND =      81
 NUMANG =     188 NPTRA  =     202 NATYP =      40 NPHB   =       0
 IFBOX  =       1 NMXRS  =      30 IFCAP =       0 NEXTRA =       0
 NCOPY  =       0

     BOX TYPE: RECTILINEAR

--------------------------------------------------------------------------------
   2.  CONTROL  DATA  FOR  THE  RUN
--------------------------------------------------------------------------------

default_name

General flags:
     imin    =       0, nmropt  =       0

Nature and format of input:
     ntx     =       5, irest   =       1, ntrx    =       1

Nature and format of output:
     ntxo    =       2, ntpr    =   50000, ntrx    =       1, ntwr    =   50000
     iwrap   =       1, ntwx    =   50000, ntwv    =       0, ntwe    =       0
     ioutfm  =       1, ntwprt  =       0, idecomp =       0, rbornstat=      0

Potential function:
     ntf     =       2, ntb     =       2, igb     =       0, nsnb    =      25
     ipol    =       0, gbsa    =       0, iesp    =       0
     dielc   =   1.00000, cut     =   9.00000, intdiel =   1.00000

Frozen or restrained atoms:
     ibelly  =       0, ntr     =       0

Molecular dynamics:
     nstlim  =  15000000, nscm    =      1000, nrespa  =         1
     t       =   0.00000, dt      =   0.00200, vlimit  =  -1.00000

Berendsen (weak-coupling) temperature regulation:
     temp0   = 300.00000, tempi   = 300.00000, tautp   =   1.00000

Pressure regulation:
     ntp     =       1
     pres0   =   1.00000, comp    =  44.60000, taup    =   1.00000

SHAKE:
     ntc     =       2, jfastw  =       0
     tol     =   0.00001

Ewald parameters:
     verbose =       0, ew_type =       0, nbflag  =       1, use_pme =       1
     vdwmeth =       1, eedmeth =       1, netfrc  =       1
     Box X =   65.016   Box Y =   75.780   Box Z =   79.972
     Alpha =   90.000   Beta  =   90.000   Gamma =   90.000
     NFFT1 =   64       NFFT2 =   80       NFFT3 =   80
     Cutoff=    9.000   Tol   =0.100E-04
     Ewald Coefficient =  0.30768
     Interpolation order =    4

--------------------------------------------------------------------------------
   3.  ATOMIC COORDINATES AND VELOCITIES
--------------------------------------------------------------------------------

default_name
 begin time read from input coords =120110.000 ps

 Number of triangulated 3-point waters found:    11958

     Sum of charges from parm topology file =  -0.00000309
     Forcing neutrality...

--------------------------------------------------------------------------------
   4.  RESULTS
 NSTEP =    50000   TIME(PS) =  120210.000  TEMP(K) =   299.33  PRESS =   -32.5
 Etot   =    -96635.5010  EKtot   =     24019.4434  EPtot      =   -120654.9444
 BOND   =       688.0728  ANGLE   =      1921.4771  DIHED      =      2811.1238
 1-4 NB =       815.4173  1-4 EEL =     10713.1192  VDWAALS    =     14911.5061
 EELEC  =   -152515.6607  EHBOND  =         0.0000  RESTRAINT  =         0.0000
 EKCMT  =     10794.8965  VIRIAL  =     11072.3672  VOLUME     =    395026.7934
                                                    Density    =         1.0145
 ------------------------------------------------------------------------------

      A V E R A G E S   O V E R     300 S T E P S

 NSTEP = 15000000   TIME(PS) =  150110.000  TEMP(K) =   299.94  PRESS =     2.6
 Etot   =    -96635.9003  EKtot   =     24067.6297  EPtot      =   -120703.5300
 BOND   =       674.5090  ANGLE   =      1895.2800  DIHED      =      2822.1314
 1-4 NB =       802.9980  1-4 EEL =     10688.3499  VDWAALS    =     14852.5202
 EELEC  =   -152439.3185  EHBOND  =         0.0000  RESTRAINT  =         0.0000
 EKCMT  =     10772.7596  VIRIAL  =     10750.9684  VOLUME     =    394629.2480
                                                    Density    =         1.0156
 ------------------------------------------------------------------------------

      R M S  F L U C T U A T I O N S

 NSTEP = 15000000   TIME(PS) =  150110.000  TEMP(K) =     1.17  PRESS =   108.5
 Etot   =        45.3342  EKtot   =        93.6147  EPtot      =       103.1042
 BOND   =        21.5995  ANGLE   =        32.8602  DIHED      =        20.0385
 1-4 NB =        11.5091  1-4 EEL =        35.3332  VDWAALS    =       140.0986
 EELEC  =       192.4491  EHBOND  =         0.0000  RESTRAINT  =         0.0000
 EKCMT  =        73.2005  VIRIAL  =       926.0318  VOLUME     =       440.6413
                                                    Density    =         0.0011
 ------------------------------------------------------------------------------
