-------------------------------------------------------
          Amber 24 PMEMD                              2024
          -------------------------------------------------------

  [-O]verwriting output

File Assignments:

 Here is the input file:

md 5 ns temp = 300 P=cte (ntb=2,ntp=1) No restraints
&cntrl
 nstlim = 15000000, dt = 0.002,
 ntx = 5, irest = 1, cut = 9.0, ioutfm = 1,
 ntpr = 50000, ntwr = 50000, ntwx = 50000,
 iwrap = 1,
 tempi = 300., temp0 = 300.,
 ntt = 1,
 ntb = 2, ntp = 1,
 ntc = 2, ntf = 2,
 ntr = 0,
&end

Note: ig = -1. Setting random seed to   599260 based on wallclock time in
      microseconds.

--------------------------------------------------------------------------------
   1.  RESOURCE   USE:
--------------------------------------------------------------------------------

 getting box info from netcdf restart file
 NATOM  =   39469 NTYPES =      16 NBONH =   37644 MBONA  =    1863
 NTHETH =    4046 MTHETA =    2518 NPHIH =    8186 MPHIA  =    7925
 NHPARM =       0 NPARM  =       0 NNB   =   67677 NRES   =   12191
 NBONA  =    1863 NTHETA =    2518 NPHIA =    7925 NUMBND =      81
 NUMANG =     188 NPTRA  =     202 NATYP =      40 NPHB   =       0
 IFBOX  =       1 NMXRS  =      30 IFCAP =       0 NEXTRA =       0
 NCOPY  =       0

     BOX TYPE: RECTILINEAR

--------------------------------------------------------------------------------
   2.  CONTROL  DATA  FOR  THE  RUN
--------------------------------------------------------------------------------

default_name

General flags:
     imin    =       0, nmropt  =       0

Nature and format of input:
     ntx     =       5, irest   =       1, ntrx    =       1

Nature and format of output:
     ntxo    =       2, ntpr    =   50000, ntrx    =       1, ntwr    =   50000
     iwrap   =       1, ntwx    =   50000, ntwv    =       0, ntwe    =       0
     ioutfm  =       1, ntwprt  =       0, idecomp =       0, rbornstat=      0

Potential function:
     ntf     =       2, ntb     =       2, igb     =       0, nsnb    =      25
     ipol    =       0, gbsa    =       0, iesp    =       0
     dielc   =   1.00000, cut     =   9.00000, intdiel =   1.00000

Frozen or restrained atoms:
     ibelly  =       0, ntr     =       0

Molecular dynamics:
     nstlim  =  15000000, nscm    =      1000, nrespa  =         1
     t       =   0.00000, dt      =   0.00200, vlimit  =  -1.00000

Berendsen (weak-coupling) temperature regulation:
     temp0   = 300.00000, tempi   = 300.00000, tautp   =   1.00000

Pressure regulation:
     ntp     =       1
     pres0   =   1.00000, comp    =  44.60000, taup    =   1.00000

SHAKE:
     ntc     =       2, jfastw  =       0
     tol     =   0.00001

Ewald parameters:
     verbose =       0, ew_type =       0, nbflag  =       1, use_pme =       1
     vdwmeth =       1, eedmeth =       1, netfrc  =       1
     Box X =   65.080   Box Y =   75.855   Box Z =   80.051
     Alpha =   90.000   Beta  =   90.000   Gamma =   90.000
     NFFT1 =   64       NFFT2 =   80       NFFT3 =   84
     Cutoff=    9.000   Tol   =0.100E-04
     Ewald Coefficient =  0.30768
     Interpolation order =    4

--------------------------------------------------------------------------------
   3.  ATOMIC COORDINATES AND VELOCITIES
--------------------------------------------------------------------------------

default_name
 begin time read from input coords =270110.000 ps

 Number of triangulated 3-point waters found:    11958

     Sum of charges from parm topology file =  -0.00000309
     Forcing neutrality...

--------------------------------------------------------------------------------
   4.  RESULTS
 NSTEP =    50000   TIME(PS) =  270210.000  TEMP(K) =   301.53  PRESS =  -182.4
 Etot   =    -96614.6123  EKtot   =     24195.2930  EPtot      =   -120809.9053
 BOND   =       655.2434  ANGLE   =      1918.7793  DIHED      =      2803.1032
 1-4 NB =       801.9383  1-4 EEL =     10706.1309  VDWAALS    =     14697.3993
 EELEC  =   -152392.4997  EHBOND  =         0.0000  RESTRAINT  =         0.0000
 EKCMT  =     10874.7383  VIRIAL  =     12429.2994  VOLUME     =    394629.7639
                                                    Density    =         1.0156
 ------------------------------------------------------------------------------

      A V E R A G E S   O V E R     300 S T E P S

 NSTEP = 15000000   TIME(PS) =  300110.000  TEMP(K) =   300.06  PRESS =    -6.4
 Etot   =    -96642.0785  EKtot   =     24077.7168  EPtot      =   -120719.7952
 BOND   =       673.7501  ANGLE   =      1899.2878  DIHED      =      2815.2528
 1-4 NB =       806.0614  1-4 EEL =     10676.9430  VDWAALS    =     14828.5617
 EELEC  =   -152419.6520  EHBOND  =         0.0000  RESTRAINT  =         0.0000
 EKCMT  =     10781.7261  VIRIAL  =     10836.4675  VOLUME     =    394532.7602
                                                    Density    =         1.0158
 ------------------------------------------------------------------------------

      R M S  F L U C T U A T I O N S

 NSTEP = 15000000   TIME(PS) =  300110.000  TEMP(K) =     1.12  PRESS =   109.2
 Etot   =        42.0919  EKtot   =        89.7785  EPtot      =       101.2468
 BOND   =        22.3894  ANGLE   =        30.3801  DIHED      =        19.3212
 1-4 NB =        11.8150  1-4 EEL =        41.8345  VDWAALS    =       135.7124
 EELEC  =       180.6024  EHBOND  =         0.0000  RESTRAINT  =         0.0000
 EKCMT  =        72.0255  VIRIAL  =       929.7502  VOLUME     =       492.4310
                                                    Density    =         0.0013
 ------------------------------------------------------------------------------
