-------------------------------------------------------
          Amber 24 PMEMD                              2024
          -------------------------------------------------------

  [-O]verwriting output

File Assignments:

 Here is the input file:

md 5 ns temp = 300 P=cte (ntb=2,ntp=1) No restraints
&cntrl
 nstlim = 15000000, dt = 0.002,
 ntx = 5, irest = 1, cut = 9.0, ioutfm = 1,
 ntpr = 50000, ntwr = 50000, ntwx = 50000,
 iwrap = 1,
 tempi = 300., temp0 = 300.,
 ntt = 1,
 ntb = 2, ntp = 1,
 ntc = 2, ntf = 2,
 ntr = 0,
&end

Note: ig = -1. Setting random seed to   478722 based on wallclock time in
      microseconds.

--------------------------------------------------------------------------------
   1.  RESOURCE   USE:
--------------------------------------------------------------------------------

 getting box info from netcdf restart file
 NATOM  =   39469 NTYPES =      16 NBONH =   37644 MBONA  =    1863
 NTHETH =    4046 MTHETA =    2518 NPHIH =    8186 MPHIA  =    7925
 NHPARM =       0 NPARM  =       0 NNB   =   67677 NRES   =   12191
 NBONA  =    1863 NTHETA =    2518 NPHIA =    7925 NUMBND =      81
 NUMANG =     188 NPTRA  =     202 NATYP =      40 NPHB   =       0
 IFBOX  =       1 NMXRS  =      30 IFCAP =       0 NEXTRA =       0
 NCOPY  =       0

     BOX TYPE: RECTILINEAR

--------------------------------------------------------------------------------
   2.  CONTROL  DATA  FOR  THE  RUN
--------------------------------------------------------------------------------

default_name

General flags:
     imin    =       0, nmropt  =       0

Nature and format of input:
     ntx     =       5, irest   =       1, ntrx    =       1

Nature and format of output:
     ntxo    =       2, ntpr    =   50000, ntrx    =       1, ntwr    =   50000
     iwrap   =       1, ntwx    =   50000, ntwv    =       0, ntwe    =       0
     ioutfm  =       1, ntwprt  =       0, idecomp =       0, rbornstat=      0

Potential function:
     ntf     =       2, ntb     =       2, igb     =       0, nsnb    =      25
     ipol    =       0, gbsa    =       0, iesp    =       0
     dielc   =   1.00000, cut     =   9.00000, intdiel =   1.00000

Frozen or restrained atoms:
     ibelly  =       0, ntr     =       0

Molecular dynamics:
     nstlim  =  15000000, nscm    =      1000, nrespa  =         1
     t       =   0.00000, dt      =   0.00200, vlimit  =  -1.00000

Berendsen (weak-coupling) temperature regulation:
     temp0   = 300.00000, tempi   = 300.00000, tautp   =   1.00000

Pressure regulation:
     ntp     =       1
     pres0   =   1.00000, comp    =  44.60000, taup    =   1.00000

SHAKE:
     ntc     =       2, jfastw  =       0
     tol     =   0.00001

Ewald parameters:
     verbose =       0, ew_type =       0, nbflag  =       1, use_pme =       1
     vdwmeth =       1, eedmeth =       1, netfrc  =       1
     Box X =   65.086   Box Y =   75.862   Box Z =   80.059
     Alpha =   90.000   Beta  =   90.000   Gamma =   90.000
     NFFT1 =   64       NFFT2 =   80       NFFT3 =   84
     Cutoff=    9.000   Tol   =0.100E-04
     Ewald Coefficient =  0.30768
     Interpolation order =    4

--------------------------------------------------------------------------------
   3.  ATOMIC COORDINATES AND VELOCITIES
--------------------------------------------------------------------------------

default_name
 begin time read from input coords = 90110.000 ps

 Number of triangulated 3-point waters found:    11958

     Sum of charges from parm topology file =  -0.00000309
     Forcing neutrality...

--------------------------------------------------------------------------------
   4.  RESULTS
 NSTEP =    50000   TIME(PS) =   90210.000  TEMP(K) =   300.65  PRESS =    38.0
 Etot   =    -96689.4613  EKtot   =     24124.8574  EPtot      =   -120814.3187
 BOND   =       661.4543  ANGLE   =      1917.8968  DIHED      =      2824.5791
 1-4 NB =       818.9696  1-4 EEL =     10741.8602  VDWAALS    =     15040.8810
 EELEC  =   -152819.9598  EHBOND  =         0.0000  RESTRAINT  =         0.0000
 EKCMT  =     10873.5997  VIRIAL  =     10549.5314  VOLUME     =    395007.4839
                                                    Density    =         1.0146
 ------------------------------------------------------------------------------

      A V E R A G E S   O V E R     300 S T E P S

 NSTEP = 15000000   TIME(PS) =  120110.000  TEMP(K) =   299.92  PRESS =     4.9
 Etot   =    -96641.1485  EKtot   =     24066.2586  EPtot      =   -120707.4071
 BOND   =       674.1222  ANGLE   =      1898.0756  DIHED      =      2829.9159
 1-4 NB =       802.0933  1-4 EEL =     10694.1359  VDWAALS    =     14857.4793
 EELEC  =   -152463.2294  EHBOND  =         0.0000  RESTRAINT  =         0.0000
 EKCMT  =     10771.8053  VIRIAL  =     10729.9273  VOLUME     =    394645.1387
                                                    Density    =         1.0155
 ------------------------------------------------------------------------------

      R M S  F L U C T U A T I O N S

 NSTEP = 15000000   TIME(PS) =  120110.000  TEMP(K) =     1.22  PRESS =   118.8
 Etot   =        45.4894  EKtot   =        97.5916  EPtot      =       105.7493
 BOND   =        22.3143  ANGLE   =        30.3249  DIHED      =        20.2192
 1-4 NB =        11.4895  1-4 EEL =        40.5971  VDWAALS    =       155.9480
 EELEC  =       200.8143  EHBOND  =         0.0000  RESTRAINT  =         0.0000
 EKCMT  =        74.4967  VIRIAL  =      1016.6441  VOLUME     =       483.4251
                                                    Density    =         0.0012
 ------------------------------------------------------------------------------
