-------------------------------------------------------
          Amber 24 PMEMD                              2024
          -------------------------------------------------------

  [-O]verwriting output

File Assignments:

 Here is the input file:

md 5 ns temp = 300 P=cte (ntb=2,ntp=1) No restraints
&cntrl
 nstlim = 15000000, dt = 0.002,
 ntx = 5, irest = 1, cut = 9.0, ioutfm = 1,
 ntpr = 50000, ntwr = 50000, ntwx = 50000,
 iwrap = 1,
 tempi = 300., temp0 = 300.,
 ntt = 1,
 ntb = 2, ntp = 1,
 ntc = 2, ntf = 2,
 ntr = 0,
&end

Note: ig = -1. Setting random seed to     9903 based on wallclock time in
      microseconds.

--------------------------------------------------------------------------------
   1.  RESOURCE   USE:
--------------------------------------------------------------------------------

 getting box info from netcdf restart file
 NATOM  =   39469 NTYPES =      16 NBONH =   37644 MBONA  =    1863
 NTHETH =    4046 MTHETA =    2518 NPHIH =    8186 MPHIA  =    7925
 NHPARM =       0 NPARM  =       0 NNB   =   67677 NRES   =   12191
 NBONA  =    1863 NTHETA =    2518 NPHIA =    7925 NUMBND =      81
 NUMANG =     188 NPTRA  =     202 NATYP =      40 NPHB   =       0
 IFBOX  =       1 NMXRS  =      30 IFCAP =       0 NEXTRA =       0
 NCOPY  =       0

     BOX TYPE: RECTILINEAR

--------------------------------------------------------------------------------
   2.  CONTROL  DATA  FOR  THE  RUN
--------------------------------------------------------------------------------

default_name

General flags:
     imin    =       0, nmropt  =       0

Nature and format of input:
     ntx     =       5, irest   =       1, ntrx    =       1

Nature and format of output:
     ntxo    =       2, ntpr    =   50000, ntrx    =       1, ntwr    =   50000
     iwrap   =       1, ntwx    =   50000, ntwv    =       0, ntwe    =       0
     ioutfm  =       1, ntwprt  =       0, idecomp =       0, rbornstat=      0

Potential function:
     ntf     =       2, ntb     =       2, igb     =       0, nsnb    =      25
     ipol    =       0, gbsa    =       0, iesp    =       0
     dielc   =   1.00000, cut     =   9.00000, intdiel =   1.00000

Frozen or restrained atoms:
     ibelly  =       0, ntr     =       0

Molecular dynamics:
     nstlim  =  15000000, nscm    =      1000, nrespa  =         1
     t       =   0.00000, dt      =   0.00200, vlimit  =  -1.00000

Berendsen (weak-coupling) temperature regulation:
     temp0   = 300.00000, tempi   = 300.00000, tautp   =   1.00000

Pressure regulation:
     ntp     =       1
     pres0   =   1.00000, comp    =  44.60000, taup    =   1.00000

SHAKE:
     ntc     =       2, jfastw  =       0
     tol     =   0.00001

Ewald parameters:
     verbose =       0, ew_type =       0, nbflag  =       1, use_pme =       1
     vdwmeth =       1, eedmeth =       1, netfrc  =       1
     Box X =   65.047   Box Y =   75.817   Box Z =   80.011
     Alpha =   90.000   Beta  =   90.000   Gamma =   90.000
     NFFT1 =   64       NFFT2 =   80       NFFT3 =   84
     Cutoff=    9.000   Tol   =0.100E-04
     Ewald Coefficient =  0.30768
     Interpolation order =    4

--------------------------------------------------------------------------------
   3.  ATOMIC COORDINATES AND VELOCITIES
--------------------------------------------------------------------------------

default_name
 begin time read from input coords = 60110.000 ps

 Number of triangulated 3-point waters found:    11958

     Sum of charges from parm topology file =  -0.00000309
     Forcing neutrality...

--------------------------------------------------------------------------------
   4.  RESULTS
 NSTEP =    50000   TIME(PS) =   60210.000  TEMP(K) =   298.58  PRESS =   290.0
 Etot   =    -96587.1925  EKtot   =     23959.0508  EPtot      =   -120546.2433
 BOND   =       692.9431  ANGLE   =      1835.9252  DIHED      =      2845.0191
 1-4 NB =       798.3596  1-4 EEL =     10655.6025  VDWAALS    =     15086.1849
 EELEC  =   -152460.2777  EHBOND  =         0.0000  RESTRAINT  =         0.0000
 EKCMT  =     10744.1273  VIRIAL  =      8271.9945  VOLUME     =    394864.0914
                                                    Density    =         1.0150
 ------------------------------------------------------------------------------

      A V E R A G E S   O V E R     300 S T E P S

 NSTEP = 15000000   TIME(PS) =   90110.000  TEMP(K) =   300.02  PRESS =    -4.1
 Etot   =    -96623.5226  EKtot   =     24074.2252  EPtot      =   -120697.7477
 BOND   =       674.7660  ANGLE   =      1903.3842  DIHED      =      2827.1288
 1-4 NB =       804.1903  1-4 EEL =     10683.5982  VDWAALS    =     14832.5150
 EELEC  =   -152423.3303  EHBOND  =         0.0000  RESTRAINT  =         0.0000
 EKCMT  =     10768.3773  VIRIAL  =     10803.0820  VOLUME     =    394623.6774
                                                    Density    =         1.0156
 ------------------------------------------------------------------------------

      R M S  F L U C T U A T I O N S

 NSTEP = 15000000   TIME(PS) =   90110.000  TEMP(K) =     1.12  PRESS =   116.2
 Etot   =        44.1359  EKtot   =        89.8703  EPtot      =       108.6532
 BOND   =        22.8786  ANGLE   =        32.2026  DIHED      =        21.4768
 1-4 NB =        11.7248  1-4 EEL =        39.6773  VDWAALS    =       142.3093
 EELEC  =       206.9862  EHBOND  =         0.0000  RESTRAINT  =         0.0000
 EKCMT  =        67.6071  VIRIAL  =       992.2504  VOLUME     =       449.5354
                                                    Density    =         0.0012
 ------------------------------------------------------------------------------
