-------------------------------------------------------
          Amber 24 PMEMD                              2024
          -------------------------------------------------------

  [-O]verwriting output

File Assignments:

 Here is the input file:

md 5 ns temp = 300 P=cte (ntb=2,ntp=1) No restraints
&cntrl
 nstlim = 15000000, dt = 0.002,
 ntx = 5, irest = 1, cut = 9.0, ioutfm = 1,
 ntpr = 50000, ntwr = 50000, ntwx = 50000,
 iwrap = 1,
 tempi = 300., temp0 = 300.,
 ntt = 1,
 ntb = 2, ntp = 1,
 ntc = 2, ntf = 2,
 ntr = 0,
&end

Note: ig = -1. Setting random seed to   106352 based on wallclock time in
      microseconds.

--------------------------------------------------------------------------------
   1.  RESOURCE   USE:
--------------------------------------------------------------------------------

 getting box info from netcdf restart file
 NATOM  =   39469 NTYPES =      16 NBONH =   37644 MBONA  =    1863
 NTHETH =    4046 MTHETA =    2518 NPHIH =    8186 MPHIA  =    7925
 NHPARM =       0 NPARM  =       0 NNB   =   67677 NRES   =   12191
 NBONA  =    1863 NTHETA =    2518 NPHIA =    7925 NUMBND =      81
 NUMANG =     188 NPTRA  =     202 NATYP =      40 NPHB   =       0
 IFBOX  =       1 NMXRS  =      30 IFCAP =       0 NEXTRA =       0
 NCOPY  =       0

     BOX TYPE: RECTILINEAR

--------------------------------------------------------------------------------
   2.  CONTROL  DATA  FOR  THE  RUN
--------------------------------------------------------------------------------

default_name

General flags:
     imin    =       0, nmropt  =       0

Nature and format of input:
     ntx     =       5, irest   =       1, ntrx    =       1

Nature and format of output:
     ntxo    =       2, ntpr    =   50000, ntrx    =       1, ntwr    =   50000
     iwrap   =       1, ntwx    =   50000, ntwv    =       0, ntwe    =       0
     ioutfm  =       1, ntwprt  =       0, idecomp =       0, rbornstat=      0

Potential function:
     ntf     =       2, ntb     =       2, igb     =       0, nsnb    =      25
     ipol    =       0, gbsa    =       0, iesp    =       0
     dielc   =   1.00000, cut     =   9.00000, intdiel =   1.00000

Frozen or restrained atoms:
     ibelly  =       0, ntr     =       0

Molecular dynamics:
     nstlim  =  15000000, nscm    =      1000, nrespa  =         1
     t       =   0.00000, dt      =   0.00200, vlimit  =  -1.00000

Berendsen (weak-coupling) temperature regulation:
     temp0   = 300.00000, tempi   = 300.00000, tautp   =   1.00000

Pressure regulation:
     ntp     =       1
     pres0   =   1.00000, comp    =  44.60000, taup    =   1.00000

SHAKE:
     ntc     =       2, jfastw  =       0
     tol     =   0.00001

Ewald parameters:
     verbose =       0, ew_type =       0, nbflag  =       1, use_pme =       1
     vdwmeth =       1, eedmeth =       1, netfrc  =       1
     Box X =   65.053   Box Y =   75.823   Box Z =   80.017
     Alpha =   90.000   Beta  =   90.000   Gamma =   90.000
     NFFT1 =   64       NFFT2 =   80       NFFT3 =   84
     Cutoff=    9.000   Tol   =0.100E-04
     Ewald Coefficient =  0.30768
     Interpolation order =    4

--------------------------------------------------------------------------------
   3.  ATOMIC COORDINATES AND VELOCITIES
--------------------------------------------------------------------------------

default_name
 begin time read from input coords = 30110.000 ps

 Number of triangulated 3-point waters found:    11958

     Sum of charges from parm topology file =  -0.00000309
     Forcing neutrality...

--------------------------------------------------------------------------------
   4.  RESULTS
 NSTEP =    50000   TIME(PS) =   30210.000  TEMP(K) =   299.23  PRESS =   -55.4
 Etot   =    -96681.9594  EKtot   =     24010.7812  EPtot      =   -120692.7406
 BOND   =       677.3831  ANGLE   =      1918.7866  DIHED      =      2820.2077
 1-4 NB =       811.9673  1-4 EEL =     10592.0632  VDWAALS    =     14697.3233
 EELEC  =   -152210.4720  EHBOND  =         0.0000  RESTRAINT  =         0.0000
 EKCMT  =     10769.4232  VIRIAL  =     11241.1731  VOLUME     =    394150.1779
                                                    Density    =         1.0168
 ------------------------------------------------------------------------------

      A V E R A G E S   O V E R     300 S T E P S

 NSTEP = 15000000   TIME(PS) =   60110.000  TEMP(K) =   299.95  PRESS =     3.0
 Etot   =    -96617.6924  EKtot   =     24068.5618  EPtot      =   -120686.2542
 BOND   =       673.8035  ANGLE   =      1904.6638  DIHED      =      2819.0869
 1-4 NB =       803.8443  1-4 EEL =     10654.5722  VDWAALS    =     14844.1354
 EELEC  =   -152386.3604  EHBOND  =         0.0000  RESTRAINT  =         0.0000
 EKCMT  =     10774.6951  VIRIAL  =     10749.3854  VOLUME     =    394656.6094
                                                    Density    =         1.0155
 ------------------------------------------------------------------------------

      R M S  F L U C T U A T I O N S

 NSTEP = 15000000   TIME(PS) =   60110.000  TEMP(K) =     1.16  PRESS =   125.8
 Etot   =        44.2194  EKtot   =        93.1062  EPtot      =       100.0982
 BOND   =        22.1935  ANGLE   =        34.3074  DIHED      =        18.7143
 1-4 NB =        11.1355  1-4 EEL =        39.9256  VDWAALS    =       155.1960
 EELEC  =       199.5385  EHBOND  =         0.0000  RESTRAINT  =         0.0000
 EKCMT  =        67.7048  VIRIAL  =      1073.4305  VOLUME     =       452.1548
                                                    Density    =         0.0012
 ------------------------------------------------------------------------------
