-------------------------------------------------------
          Amber 24 PMEMD                              2024
          -------------------------------------------------------

  [-O]verwriting output

File Assignments:

 Here is the input file:

md 5 ns temp = 300 P=cte (ntb=2,ntp=1) No restraints
&cntrl
 nstlim = 15000000, dt = 0.002,
 ntx = 5, irest = 1, cut = 9.0, ioutfm = 1,
 ntpr = 50000, ntwr = 50000, ntwx = 50000,
 iwrap = 1,
 tempi = 300., temp0 = 300.,
 ntt = 1,
 ntb = 2, ntp = 1,
 ntc = 2, ntf = 2,
 ntr = 0,
&end

Note: ig = -1. Setting random seed to   600840 based on wallclock time in
      microseconds.

--------------------------------------------------------------------------------
   1.  RESOURCE   USE:
--------------------------------------------------------------------------------

 getting box info from netcdf restart file
 NATOM  =   33263 NTYPES =      16 NBONH =   31426 MBONA  =    1876
 NTHETH =    4058 MTHETA =    2538 NPHIH =    8240 MPHIA  =    7974
 NHPARM =       0 NPARM  =       0 NNB   =   59483 NRES   =   10117
 NBONA  =    1876 NTHETA =    2538 NPHIA =    7974 NUMBND =      79
 NUMANG =     183 NPTRA  =     201 NATYP =      39 NPHB   =       0
 IFBOX  =       1 NMXRS  =      34 IFCAP =       0 NEXTRA =       0
 NCOPY  =       0

     BOX TYPE: RECTILINEAR

--------------------------------------------------------------------------------
   2.  CONTROL  DATA  FOR  THE  RUN
--------------------------------------------------------------------------------

default_name

General flags:
     imin    =       0, nmropt  =       0

Nature and format of input:
     ntx     =       5, irest   =       1, ntrx    =       1

Nature and format of output:
     ntxo    =       2, ntpr    =   50000, ntrx    =       1, ntwr    =   50000
     iwrap   =       1, ntwx    =   50000, ntwv    =       0, ntwe    =       0
     ioutfm  =       1, ntwprt  =       0, idecomp =       0, rbornstat=      0

Potential function:
     ntf     =       2, ntb     =       2, igb     =       0, nsnb    =      25
     ipol    =       0, gbsa    =       0, iesp    =       0
     dielc   =   1.00000, cut     =   9.00000, intdiel =   1.00000

Frozen or restrained atoms:
     ibelly  =       0, ntr     =       0

Molecular dynamics:
     nstlim  =  15000000, nscm    =      1000, nrespa  =         1
     t       =   0.00000, dt      =   0.00200, vlimit  =  -1.00000

Berendsen (weak-coupling) temperature regulation:
     temp0   = 300.00000, tempi   = 300.00000, tautp   =   1.00000

Pressure regulation:
     ntp     =       1
     pres0   =   1.00000, comp    =  44.60000, taup    =   1.00000

SHAKE:
     ntc     =       2, jfastw  =       0
     tol     =   0.00001

Ewald parameters:
     verbose =       0, ew_type =       0, nbflag  =       1, use_pme =       1
     vdwmeth =       1, eedmeth =       1, netfrc  =       1
     Box X =   71.274   Box Y =   77.905   Box Z =   59.762
     Alpha =   90.000   Beta  =   90.000   Gamma =   90.000
     NFFT1 =   72       NFFT2 =   80       NFFT3 =   64
     Cutoff=    9.000   Tol   =0.100E-04
     Ewald Coefficient =  0.30768
     Interpolation order =    4

--------------------------------------------------------------------------------
   3.  ATOMIC COORDINATES AND VELOCITIES
--------------------------------------------------------------------------------

default_name
 begin time read from input coords =210110.000 ps

 Number of triangulated 3-point waters found:     9883

     Sum of charges from parm topology file =  -0.00000010
     Forcing neutrality...

--------------------------------------------------------------------------------
   4.  RESULTS
 NSTEP =    50000   TIME(PS) =  210210.000  TEMP(K) =   300.89  PRESS =   -20.4
 Etot   =    -80633.4015  EKtot   =     20437.2695  EPtot      =   -101070.6711
 BOND   =       703.1470  ANGLE   =      1948.7808  DIHED      =      2844.0981
 1-4 NB =       802.6430  1-4 EEL =     10642.7336  VDWAALS    =     11823.9870
 EELEC  =   -129836.0604  EHBOND  =         0.0000  RESTRAINT  =         0.0000
 EKCMT  =      8954.0078  VIRIAL  =      9099.6722  VOLUME     =    331160.6674
                                                    Density    =         1.0235
 ------------------------------------------------------------------------------

      A V E R A G E S   O V E R     300 S T E P S

 NSTEP = 15000000   TIME(PS) =  240110.000  TEMP(K) =   299.93  PRESS =     5.7
 Etot   =    -80589.6633  EKtot   =     20371.9536  EPtot      =   -100961.6170
 BOND   =       679.0225  ANGLE   =      1908.0699  DIHED      =      2843.1862
 1-4 NB =       812.3124  1-4 EEL =     10687.8479  VDWAALS    =     11900.2631
 EELEC  =   -129792.3191  EHBOND  =         0.0000  RESTRAINT  =         0.0000
 EKCMT  =      8908.5815  VIRIAL  =      8867.8415  VOLUME     =    331805.0725
                                                    Density    =         1.0215
 ------------------------------------------------------------------------------

      R M S  F L U C T U A T I O N S

 NSTEP = 15000000   TIME(PS) =  240110.000  TEMP(K) =     1.24  PRESS =   128.8
 Etot   =        43.0451  EKtot   =        84.3870  EPtot      =        95.0961
 BOND   =        19.5700  ANGLE   =        33.1199  DIHED      =        19.8594
 1-4 NB =        12.9537  1-4 EEL =        41.8372  VDWAALS    =       132.6256
 EELEC  =       177.2247  EHBOND  =         0.0000  RESTRAINT  =         0.0000
 EKCMT  =        62.0493  VIRIAL  =       934.7143  VOLUME     =       436.3782
                                                    Density    =         0.0013
 ------------------------------------------------------------------------------
