-------------------------------------------------------
          Amber 24 PMEMD                              2024
          -------------------------------------------------------

  [-O]verwriting output

File Assignments:

 Here is the input file:

md 5 ns temp = 300 P=cte (ntb=2,ntp=1) No restraints
&cntrl
 nstlim = 15000000, dt = 0.002,
 ntx = 5, irest = 1, cut = 9.0, ioutfm = 1,
 ntpr = 50000, ntwr = 50000, ntwx = 50000,
 iwrap = 1,
 tempi = 300., temp0 = 300.,
 ntt = 1,
 ntb = 2, ntp = 1,
 ntc = 2, ntf = 2,
 ntr = 0,
&end

Note: ig = -1. Setting random seed to   361426 based on wallclock time in
      microseconds.

--------------------------------------------------------------------------------
   1.  RESOURCE   USE:
--------------------------------------------------------------------------------

 getting box info from netcdf restart file
 NATOM  =   33263 NTYPES =      16 NBONH =   31426 MBONA  =    1876
 NTHETH =    4058 MTHETA =    2538 NPHIH =    8240 MPHIA  =    7974
 NHPARM =       0 NPARM  =       0 NNB   =   59483 NRES   =   10117
 NBONA  =    1876 NTHETA =    2538 NPHIA =    7974 NUMBND =      79
 NUMANG =     183 NPTRA  =     201 NATYP =      39 NPHB   =       0
 IFBOX  =       1 NMXRS  =      34 IFCAP =       0 NEXTRA =       0
 NCOPY  =       0

     BOX TYPE: RECTILINEAR

--------------------------------------------------------------------------------
   2.  CONTROL  DATA  FOR  THE  RUN
--------------------------------------------------------------------------------

default_name

General flags:
     imin    =       0, nmropt  =       0

Nature and format of input:
     ntx     =       5, irest   =       1, ntrx    =       1

Nature and format of output:
     ntxo    =       2, ntpr    =   50000, ntrx    =       1, ntwr    =   50000
     iwrap   =       1, ntwx    =   50000, ntwv    =       0, ntwe    =       0
     ioutfm  =       1, ntwprt  =       0, idecomp =       0, rbornstat=      0

Potential function:
     ntf     =       2, ntb     =       2, igb     =       0, nsnb    =      25
     ipol    =       0, gbsa    =       0, iesp    =       0
     dielc   =   1.00000, cut     =   9.00000, intdiel =   1.00000

Frozen or restrained atoms:
     ibelly  =       0, ntr     =       0

Molecular dynamics:
     nstlim  =  15000000, nscm    =      1000, nrespa  =         1
     t       =   0.00000, dt      =   0.00200, vlimit  =  -1.00000

Berendsen (weak-coupling) temperature regulation:
     temp0   = 300.00000, tempi   = 300.00000, tautp   =   1.00000

Pressure regulation:
     ntp     =       1
     pres0   =   1.00000, comp    =  44.60000, taup    =   1.00000

SHAKE:
     ntc     =       2, jfastw  =       0
     tol     =   0.00001

Ewald parameters:
     verbose =       0, ew_type =       0, nbflag  =       1, use_pme =       1
     vdwmeth =       1, eedmeth =       1, netfrc  =       1
     Box X =   73.441   Box Y =   80.273   Box Z =   61.578
     Alpha =   90.000   Beta  =   90.000   Gamma =   90.000
     NFFT1 =   80       NFFT2 =   84       NFFT3 =   64
     Cutoff=    9.000   Tol   =0.100E-04
     Ewald Coefficient =  0.30768
     Interpolation order =    4

--------------------------------------------------------------------------------
   3.  ATOMIC COORDINATES AND VELOCITIES
--------------------------------------------------------------------------------

Cpptraj Generated Restart
 begin time read from input coords =   110.000 ps

 Number of triangulated 3-point waters found:     9883

     Sum of charges from parm topology file =  -0.00000010
     Forcing neutrality...

--------------------------------------------------------------------------------
   4.  RESULTS
 NSTEP =    50000   TIME(PS) =     210.000  TEMP(K) =   299.75  PRESS =    -4.6
 Etot   =    -80605.9680  EKtot   =     20359.3613  EPtot      =   -100965.3293
 BOND   =       677.3322  ANGLE   =      1913.8214  DIHED      =      2912.3887
 1-4 NB =       806.0495  1-4 EEL =     10809.9395  VDWAALS    =     11946.1255
 EELEC  =   -130030.9862  EHBOND  =         0.0000  RESTRAINT  =         0.0000
 EKCMT  =      8883.5329  VIRIAL  =      8916.5280  VOLUME     =    330922.8594
                                                    Density    =         1.0242
 ------------------------------------------------------------------------------

      A V E R A G E S   O V E R     300 S T E P S

 NSTEP = 15000000   TIME(PS) =   30110.000  TEMP(K) =   299.90  PRESS =     7.8
 Etot   =    -80567.2133  EKtot   =     20369.5376  EPtot      =   -100936.7509
 BOND   =       679.9214  ANGLE   =      1908.3597  DIHED      =      2868.5611
 1-4 NB =       813.6610  1-4 EEL =     10697.1600  VDWAALS    =     11872.1574
 EELEC  =   -129776.5714  EHBOND  =         0.0000  RESTRAINT  =         0.0000
 EKCMT  =      8902.8689  VIRIAL  =      8846.9178  VOLUME     =    331648.8750
                                                    Density    =         1.0220
 ------------------------------------------------------------------------------

      R M S  F L U C T U A T I O N S

 NSTEP = 15000000   TIME(PS) =   30110.000  TEMP(K) =     1.28  PRESS =   130.0
 Etot   =        41.5368  EKtot   =        87.0700  EPtot      =        97.6685
 BOND   =        21.5992  ANGLE   =        31.2788  DIHED      =        23.0546
 1-4 NB =        12.6748  1-4 EEL =        59.5054  VDWAALS    =       129.6492
 EELEC  =       188.7013  EHBOND  =         0.0000  RESTRAINT  =         0.0000
 EKCMT  =        67.7489  VIRIAL  =       942.0582  VOLUME     =       430.1885
                                                    Density    =         0.0013
 ------------------------------------------------------------------------------
