-------------------------------------------------------
          Amber 24 PMEMD                              2024
          -------------------------------------------------------

  [-O]verwriting output

File Assignments:

 Here is the input file:

md 5 ns temp = 300 P=cte (ntb=2,ntp=1) No restraints
&cntrl
 nstlim = 15000000, dt = 0.002,
 ntx = 5, irest = 1, cut = 9.0, ioutfm = 1,
 ntpr = 50000, ntwr = 50000, ntwx = 50000,
 iwrap = 1,
 tempi = 300., temp0 = 300.,
 ntt = 1,
 ntb = 2, ntp = 1,
 ntc = 2, ntf = 2,
 ntr = 0,
&end

Note: ig = -1. Setting random seed to   110299 based on wallclock time in
      microseconds.

--------------------------------------------------------------------------------
   1.  RESOURCE   USE:
--------------------------------------------------------------------------------

 getting box info from netcdf restart file
 NATOM  =   33263 NTYPES =      16 NBONH =   31426 MBONA  =    1876
 NTHETH =    4058 MTHETA =    2538 NPHIH =    8240 MPHIA  =    7974
 NHPARM =       0 NPARM  =       0 NNB   =   59483 NRES   =   10117
 NBONA  =    1876 NTHETA =    2538 NPHIA =    7974 NUMBND =      79
 NUMANG =     183 NPTRA  =     201 NATYP =      39 NPHB   =       0
 IFBOX  =       1 NMXRS  =      34 IFCAP =       0 NEXTRA =       0
 NCOPY  =       0

     BOX TYPE: RECTILINEAR

--------------------------------------------------------------------------------
   2.  CONTROL  DATA  FOR  THE  RUN
--------------------------------------------------------------------------------

default_name

General flags:
     imin    =       0, nmropt  =       0

Nature and format of input:
     ntx     =       5, irest   =       1, ntrx    =       1

Nature and format of output:
     ntxo    =       2, ntpr    =   50000, ntrx    =       1, ntwr    =   50000
     iwrap   =       1, ntwx    =   50000, ntwv    =       0, ntwe    =       0
     ioutfm  =       1, ntwprt  =       0, idecomp =       0, rbornstat=      0

Potential function:
     ntf     =       2, ntb     =       2, igb     =       0, nsnb    =      25
     ipol    =       0, gbsa    =       0, iesp    =       0
     dielc   =   1.00000, cut     =   9.00000, intdiel =   1.00000

Frozen or restrained atoms:
     ibelly  =       0, ntr     =       0

Molecular dynamics:
     nstlim  =  15000000, nscm    =      1000, nrespa  =         1
     t       =   0.00000, dt      =   0.00200, vlimit  =  -1.00000

Berendsen (weak-coupling) temperature regulation:
     temp0   = 300.00000, tempi   = 300.00000, tautp   =   1.00000

Pressure regulation:
     ntp     =       1
     pres0   =   1.00000, comp    =  44.60000, taup    =   1.00000

SHAKE:
     ntc     =       2, jfastw  =       0
     tol     =   0.00001

Ewald parameters:
     verbose =       0, ew_type =       0, nbflag  =       1, use_pme =       1
     vdwmeth =       1, eedmeth =       1, netfrc  =       1
     Box X =   71.278   Box Y =   77.909   Box Z =   59.764
     Alpha =   90.000   Beta  =   90.000   Gamma =   90.000
     NFFT1 =   72       NFFT2 =   80       NFFT3 =   64
     Cutoff=    9.000   Tol   =0.100E-04
     Ewald Coefficient =  0.30768
     Interpolation order =    4

--------------------------------------------------------------------------------
   3.  ATOMIC COORDINATES AND VELOCITIES
--------------------------------------------------------------------------------

default_name
 begin time read from input coords =240110.000 ps

 Number of triangulated 3-point waters found:     9883

     Sum of charges from parm topology file =  -0.00000010
     Forcing neutrality...

--------------------------------------------------------------------------------
   4.  RESULTS
 NSTEP =    50000   TIME(PS) =  240210.000  TEMP(K) =   300.76  PRESS =   -46.4
 Etot   =    -80554.1320  EKtot   =     20428.0996  EPtot      =   -100982.2316
 BOND   =       668.3581  ANGLE   =      1888.7251  DIHED      =      2817.6323
 1-4 NB =       822.6788  1-4 EEL =     10712.0353  VDWAALS    =     12007.7495
 EELEC  =   -129899.4107  EHBOND  =         0.0000  RESTRAINT  =         0.0000
 EKCMT  =      8925.3401  VIRIAL  =      9258.2948  VOLUME     =    332019.0112
                                                    Density    =         1.0208
 ------------------------------------------------------------------------------

      A V E R A G E S   O V E R     300 S T E P S

 NSTEP = 15000000   TIME(PS) =  270110.000  TEMP(K) =   299.90  PRESS =     1.8
 Etot   =    -80575.4187  EKtot   =     20370.0809  EPtot      =   -100945.4996
 BOND   =       680.4337  ANGLE   =      1911.8745  DIHED      =      2852.1065
 1-4 NB =       808.0590  1-4 EEL =     10685.7787  VDWAALS    =     11880.2408
 EELEC  =   -129763.9927  EHBOND  =         0.0000  RESTRAINT  =         0.0000
 EKCMT  =      8905.7410  VIRIAL  =      8892.8836  VOLUME     =    331829.5575
                                                    Density    =         1.0214
 ------------------------------------------------------------------------------

      R M S  F L U C T U A T I O N S

 NSTEP = 15000000   TIME(PS) =  270110.000  TEMP(K) =     1.25  PRESS =   134.1
 Etot   =        41.7795  EKtot   =        85.1907  EPtot      =        97.8181
 BOND   =        21.0920  ANGLE   =        33.0912  DIHED      =        19.6389
 1-4 NB =        11.1699  1-4 EEL =        40.3226  VDWAALS    =       139.4362
 EELEC  =       188.2021  EHBOND  =         0.0000  RESTRAINT  =         0.0000
 EKCMT  =        61.8419  VIRIAL  =       959.3684  VOLUME     =       432.5556
                                                    Density    =         0.0013
 ------------------------------------------------------------------------------
