-------------------------------------------------------
          Amber 24 PMEMD                              2024
          -------------------------------------------------------

  [-O]verwriting output

File Assignments:

 Here is the input file:

md 5 ns temp = 300 P=cte (ntb=2,ntp=1) No restraints
&cntrl
 nstlim = 15000000, dt = 0.002,
 ntx = 5, irest = 1, cut = 9.0, ioutfm = 1,
 ntpr = 50000, ntwr = 50000, ntwx = 50000,
 iwrap = 1,
 tempi = 300., temp0 = 300.,
 ntt = 1,
 ntb = 2, ntp = 1,
 ntc = 2, ntf = 2,
 ntr = 0,
&end

Note: ig = -1. Setting random seed to   140484 based on wallclock time in
      microseconds.

--------------------------------------------------------------------------------
   1.  RESOURCE   USE:
--------------------------------------------------------------------------------

 getting box info from netcdf restart file
 NATOM  =   33263 NTYPES =      16 NBONH =   31426 MBONA  =    1876
 NTHETH =    4058 MTHETA =    2538 NPHIH =    8240 MPHIA  =    7974
 NHPARM =       0 NPARM  =       0 NNB   =   59483 NRES   =   10117
 NBONA  =    1876 NTHETA =    2538 NPHIA =    7974 NUMBND =      79
 NUMANG =     183 NPTRA  =     201 NATYP =      39 NPHB   =       0
 IFBOX  =       1 NMXRS  =      34 IFCAP =       0 NEXTRA =       0
 NCOPY  =       0

     BOX TYPE: RECTILINEAR

--------------------------------------------------------------------------------
   2.  CONTROL  DATA  FOR  THE  RUN
--------------------------------------------------------------------------------

default_name

General flags:
     imin    =       0, nmropt  =       0

Nature and format of input:
     ntx     =       5, irest   =       1, ntrx    =       1

Nature and format of output:
     ntxo    =       2, ntpr    =   50000, ntrx    =       1, ntwr    =   50000
     iwrap   =       1, ntwx    =   50000, ntwv    =       0, ntwe    =       0
     ioutfm  =       1, ntwprt  =       0, idecomp =       0, rbornstat=      0

Potential function:
     ntf     =       2, ntb     =       2, igb     =       0, nsnb    =      25
     ipol    =       0, gbsa    =       0, iesp    =       0
     dielc   =   1.00000, cut     =   9.00000, intdiel =   1.00000

Frozen or restrained atoms:
     ibelly  =       0, ntr     =       0

Molecular dynamics:
     nstlim  =  15000000, nscm    =      1000, nrespa  =         1
     t       =   0.00000, dt      =   0.00200, vlimit  =  -1.00000

Berendsen (weak-coupling) temperature regulation:
     temp0   = 300.00000, tempi   = 300.00000, tautp   =   1.00000

Pressure regulation:
     ntp     =       1
     pres0   =   1.00000, comp    =  44.60000, taup    =   1.00000

SHAKE:
     ntc     =       2, jfastw  =       0
     tol     =   0.00001

Ewald parameters:
     verbose =       0, ew_type =       0, nbflag  =       1, use_pme =       1
     vdwmeth =       1, eedmeth =       1, netfrc  =       1
     Box X =   71.241   Box Y =   77.869   Box Z =   59.734
     Alpha =   90.000   Beta  =   90.000   Gamma =   90.000
     NFFT1 =   72       NFFT2 =   80       NFFT3 =   64
     Cutoff=    9.000   Tol   =0.100E-04
     Ewald Coefficient =  0.30768
     Interpolation order =    4

--------------------------------------------------------------------------------
   3.  ATOMIC COORDINATES AND VELOCITIES
--------------------------------------------------------------------------------

default_name
 begin time read from input coords = 60110.000 ps

 Number of triangulated 3-point waters found:     9883

     Sum of charges from parm topology file =  -0.00000010
     Forcing neutrality...

--------------------------------------------------------------------------------
   4.  RESULTS
 NSTEP =    50000   TIME(PS) =   60210.000  TEMP(K) =   300.74  PRESS =  -100.0
 Etot   =    -80594.6931  EKtot   =     20427.1094  EPtot      =   -101021.8025
 BOND   =       672.6616  ANGLE   =      1943.2678  DIHED      =      2856.8152
 1-4 NB =       775.0802  1-4 EEL =     10708.8586  VDWAALS    =     11837.2907
 EELEC  =   -129815.7765  EHBOND  =         0.0000  RESTRAINT  =         0.0000
 EKCMT  =      8904.6479  VIRIAL  =      9620.6015  VOLUME     =    331445.5475
                                                    Density    =         1.0226
 ------------------------------------------------------------------------------

      A V E R A G E S   O V E R     300 S T E P S

 NSTEP = 15000000   TIME(PS) =   90110.000  TEMP(K) =   299.87  PRESS =     6.8
 Etot   =    -80579.4698  EKtot   =     20368.1383  EPtot      =   -100947.6081
 BOND   =       681.0443  ANGLE   =      1915.4737  DIHED      =      2855.9457
 1-4 NB =       809.7744  1-4 EEL =     10707.0987  VDWAALS    =     11889.0993
 EELEC  =   -129806.0442  EHBOND  =         0.0000  RESTRAINT  =         0.0000
 EKCMT  =      8908.9083  VIRIAL  =      8860.1245  VOLUME     =    331803.2825
                                                    Density    =         1.0215
 ------------------------------------------------------------------------------

      R M S  F L U C T U A T I O N S

 NSTEP = 15000000   TIME(PS) =   90110.000  TEMP(K) =     1.33  PRESS =   131.6
 Etot   =        41.2085  EKtot   =        90.2891  EPtot      =       100.5511
 BOND   =        22.2342  ANGLE   =        31.6744  DIHED      =        20.3535
 1-4 NB =        12.1985  1-4 EEL =        52.3399  VDWAALS    =       139.7552
 EELEC  =       195.5131  EHBOND  =         0.0000  RESTRAINT  =         0.0000
 EKCMT  =        67.1332  VIRIAL  =       943.8786  VOLUME     =       458.5322
                                                    Density    =         0.0014
 ------------------------------------------------------------------------------
