-------------------------------------------------------
          Amber 24 PMEMD                              2024
          -------------------------------------------------------

  [-O]verwriting output

File Assignments:

 Here is the input file:

md 5 ns temp = 300 P=cte (ntb=2,ntp=1) No restraints
&cntrl
 nstlim = 15000000, dt = 0.002,
 ntx = 5, irest = 1, cut = 9.0, ioutfm = 1,
 ntpr = 50000, ntwr = 50000, ntwx = 50000,
 iwrap = 1,
 tempi = 300., temp0 = 300.,
 ntt = 1,
 ntb = 2, ntp = 1,
 ntc = 2, ntf = 2,
 ntr = 0,
&end

Note: ig = -1. Setting random seed to   203219 based on wallclock time in
      microseconds.

--------------------------------------------------------------------------------
   1.  RESOURCE   USE:
--------------------------------------------------------------------------------

 getting box info from netcdf restart file
 NATOM  =   33263 NTYPES =      16 NBONH =   31426 MBONA  =    1876
 NTHETH =    4058 MTHETA =    2538 NPHIH =    8240 MPHIA  =    7974
 NHPARM =       0 NPARM  =       0 NNB   =   59483 NRES   =   10117
 NBONA  =    1876 NTHETA =    2538 NPHIA =    7974 NUMBND =      79
 NUMANG =     183 NPTRA  =     201 NATYP =      39 NPHB   =       0
 IFBOX  =       1 NMXRS  =      34 IFCAP =       0 NEXTRA =       0
 NCOPY  =       0

     BOX TYPE: RECTILINEAR

--------------------------------------------------------------------------------
   2.  CONTROL  DATA  FOR  THE  RUN
--------------------------------------------------------------------------------

default_name

General flags:
     imin    =       0, nmropt  =       0

Nature and format of input:
     ntx     =       5, irest   =       1, ntrx    =       1

Nature and format of output:
     ntxo    =       2, ntpr    =   50000, ntrx    =       1, ntwr    =   50000
     iwrap   =       1, ntwx    =   50000, ntwv    =       0, ntwe    =       0
     ioutfm  =       1, ntwprt  =       0, idecomp =       0, rbornstat=      0

Potential function:
     ntf     =       2, ntb     =       2, igb     =       0, nsnb    =      25
     ipol    =       0, gbsa    =       0, iesp    =       0
     dielc   =   1.00000, cut     =   9.00000, intdiel =   1.00000

Frozen or restrained atoms:
     ibelly  =       0, ntr     =       0

Molecular dynamics:
     nstlim  =  15000000, nscm    =      1000, nrespa  =         1
     t       =   0.00000, dt      =   0.00200, vlimit  =  -1.00000

Berendsen (weak-coupling) temperature regulation:
     temp0   = 300.00000, tempi   = 300.00000, tautp   =   1.00000

Pressure regulation:
     ntp     =       1
     pres0   =   1.00000, comp    =  44.60000, taup    =   1.00000

SHAKE:
     ntc     =       2, jfastw  =       0
     tol     =   0.00001

Ewald parameters:
     verbose =       0, ew_type =       0, nbflag  =       1, use_pme =       1
     vdwmeth =       1, eedmeth =       1, netfrc  =       1
     Box X =   71.245   Box Y =   77.873   Box Z =   59.737
     Alpha =   90.000   Beta  =   90.000   Gamma =   90.000
     NFFT1 =   72       NFFT2 =   80       NFFT3 =   64
     Cutoff=    9.000   Tol   =0.100E-04
     Ewald Coefficient =  0.30768
     Interpolation order =    4

--------------------------------------------------------------------------------
   3.  ATOMIC COORDINATES AND VELOCITIES
--------------------------------------------------------------------------------

default_name
 begin time read from input coords =150110.000 ps

 Number of triangulated 3-point waters found:     9883

     Sum of charges from parm topology file =  -0.00000010
     Forcing neutrality...

--------------------------------------------------------------------------------
   4.  RESULTS
 NSTEP =    50000   TIME(PS) =  150210.000  TEMP(K) =   298.30  PRESS =   191.9
 Etot   =    -80591.3115  EKtot   =     20261.1914  EPtot      =   -100852.5029
 BOND   =       679.3848  ANGLE   =      1906.7492  DIHED      =      2804.1136
 1-4 NB =       812.0970  1-4 EEL =     10701.3146  VDWAALS    =     11994.3350
 EELEC  =   -129750.4971  EHBOND  =         0.0000  RESTRAINT  =         0.0000
 EKCMT  =      8900.6635  VIRIAL  =      7526.2897  VOLUME     =    331670.8700
                                                    Density    =         1.0219
 ------------------------------------------------------------------------------

      A V E R A G E S   O V E R     300 S T E P S

 NSTEP = 15000000   TIME(PS) =  180110.000  TEMP(K) =   299.82  PRESS =    18.3
 Etot   =    -80592.6056  EKtot   =     20364.1200  EPtot      =   -100956.7256
 BOND   =       680.0702  ANGLE   =      1905.9743  DIHED      =      2847.8401
 1-4 NB =       811.2901  1-4 EEL =     10690.6335  VDWAALS    =     11899.8018
 EELEC  =   -129792.3354  EHBOND  =         0.0000  RESTRAINT  =         0.0000
 EKCMT  =      8906.4776  VIRIAL  =      8775.1113  VOLUME     =    331797.7940
                                                    Density    =         1.0215
 ------------------------------------------------------------------------------

      R M S  F L U C T U A T I O N S

 NSTEP = 15000000   TIME(PS) =  180110.000  TEMP(K) =     1.26  PRESS =   133.7
 Etot   =        41.5998  EKtot   =        85.5691  EPtot      =        97.1682
 BOND   =        22.6618  ANGLE   =        32.5568  DIHED      =        19.6036
 1-4 NB =        11.4994  1-4 EEL =        39.5262  VDWAALS    =       127.4162
 EELEC  =       173.4130  EHBOND  =         0.0000  RESTRAINT  =         0.0000
 EKCMT  =        64.4287  VIRIAL  =       955.0787  VOLUME     =       411.0423
                                                    Density    =         0.0013
 ------------------------------------------------------------------------------
