-------------------------------------------------------
          Amber 24 PMEMD                              2024
          -------------------------------------------------------

  [-O]verwriting output

File Assignments:

 Here is the input file:

md 5 ns temp = 300 P=cte (ntb=2,ntp=1) No restraints
&cntrl
 nstlim = 15000000, dt = 0.002,
 ntx = 5, irest = 1, cut = 9.0, ioutfm = 1,
 ntpr = 50000, ntwr = 50000, ntwx = 50000,
 iwrap = 1,
 tempi = 300., temp0 = 300.,
 ntt = 1,
 ntb = 2, ntp = 1,
 ntc = 2, ntf = 2,
 ntr = 0,
&end

Note: ig = -1. Setting random seed to   545899 based on wallclock time in
      microseconds.

--------------------------------------------------------------------------------
   1.  RESOURCE   USE:
--------------------------------------------------------------------------------

 getting box info from netcdf restart file
 NATOM  =   33263 NTYPES =      16 NBONH =   31426 MBONA  =    1876
 NTHETH =    4058 MTHETA =    2538 NPHIH =    8240 MPHIA  =    7974
 NHPARM =       0 NPARM  =       0 NNB   =   59483 NRES   =   10117
 NBONA  =    1876 NTHETA =    2538 NPHIA =    7974 NUMBND =      79
 NUMANG =     183 NPTRA  =     201 NATYP =      39 NPHB   =       0
 IFBOX  =       1 NMXRS  =      34 IFCAP =       0 NEXTRA =       0
 NCOPY  =       0

     BOX TYPE: RECTILINEAR

--------------------------------------------------------------------------------
   2.  CONTROL  DATA  FOR  THE  RUN
--------------------------------------------------------------------------------

default_name

General flags:
     imin    =       0, nmropt  =       0

Nature and format of input:
     ntx     =       5, irest   =       1, ntrx    =       1

Nature and format of output:
     ntxo    =       2, ntpr    =   50000, ntrx    =       1, ntwr    =   50000
     iwrap   =       1, ntwx    =   50000, ntwv    =       0, ntwe    =       0
     ioutfm  =       1, ntwprt  =       0, idecomp =       0, rbornstat=      0

Potential function:
     ntf     =       2, ntb     =       2, igb     =       0, nsnb    =      25
     ipol    =       0, gbsa    =       0, iesp    =       0
     dielc   =   1.00000, cut     =   9.00000, intdiel =   1.00000

Frozen or restrained atoms:
     ibelly  =       0, ntr     =       0

Molecular dynamics:
     nstlim  =  15000000, nscm    =      1000, nrespa  =         1
     t       =   0.00000, dt      =   0.00200, vlimit  =  -1.00000

Berendsen (weak-coupling) temperature regulation:
     temp0   = 300.00000, tempi   = 300.00000, tautp   =   1.00000

Pressure regulation:
     ntp     =       1
     pres0   =   1.00000, comp    =  44.60000, taup    =   1.00000

SHAKE:
     ntc     =       2, jfastw  =       0
     tol     =   0.00001

Ewald parameters:
     verbose =       0, ew_type =       0, nbflag  =       1, use_pme =       1
     vdwmeth =       1, eedmeth =       1, netfrc  =       1
     Box X =   71.281   Box Y =   77.913   Box Z =   59.768
     Alpha =   90.000   Beta  =   90.000   Gamma =   90.000
     NFFT1 =   72       NFFT2 =   80       NFFT3 =   64
     Cutoff=    9.000   Tol   =0.100E-04
     Ewald Coefficient =  0.30768
     Interpolation order =    4

--------------------------------------------------------------------------------
   3.  ATOMIC COORDINATES AND VELOCITIES
--------------------------------------------------------------------------------

default_name
 begin time read from input coords = 90110.000 ps

 Number of triangulated 3-point waters found:     9883

     Sum of charges from parm topology file =  -0.00000010
     Forcing neutrality...

--------------------------------------------------------------------------------
   4.  RESULTS
 NSTEP =    50000   TIME(PS) =   90210.000  TEMP(K) =   300.47  PRESS =   -70.6
 Etot   =    -80554.2133  EKtot   =     20408.5723  EPtot      =   -100962.7855
 BOND   =       656.8384  ANGLE   =      1915.2518  DIHED      =      2858.4628
 1-4 NB =       798.5850  1-4 EEL =     10618.1077  VDWAALS    =     11856.7530
 EELEC  =   -129666.7842  EHBOND  =         0.0000  RESTRAINT  =         0.0000
 EKCMT  =      8905.3156  VIRIAL  =      9410.4759  VOLUME     =    331522.2470
                                                    Density    =         1.0224
 ------------------------------------------------------------------------------

      A V E R A G E S   O V E R     300 S T E P S

 NSTEP = 15000000   TIME(PS) =  120110.000  TEMP(K) =   299.96  PRESS =    10.0
 Etot   =    -80587.6594  EKtot   =     20373.6407  EPtot      =   -100961.3001
 BOND   =       680.6387  ANGLE   =      1912.9404  DIHED      =      2858.2794
 1-4 NB =       811.1618  1-4 EEL =     10717.5749  VDWAALS    =     11895.0110
 EELEC  =   -129836.9063  EHBOND  =         0.0000  RESTRAINT  =         0.0000
 EKCMT  =      8910.5413  VIRIAL  =      8839.2277  VOLUME     =    331820.4048
                                                    Density    =         1.0215
 ------------------------------------------------------------------------------

      R M S  F L U C T U A T I O N S

 NSTEP = 15000000   TIME(PS) =  120110.000  TEMP(K) =     1.18  PRESS =   134.2
 Etot   =        38.5483  EKtot   =        80.1520  EPtot      =        86.2631
 BOND   =        22.5721  ANGLE   =        31.4600  DIHED      =        20.9519
 1-4 NB =        11.3144  1-4 EEL =        42.3058  VDWAALS    =       130.2249
 EELEC  =       182.2135  EHBOND  =         0.0000  RESTRAINT  =         0.0000
 EKCMT  =        63.7182  VIRIAL  =       966.9854  VOLUME     =       412.9502
                                                    Density    =         0.0013
 ------------------------------------------------------------------------------
