-------------------------------------------------------
          Amber 24 PMEMD                              2024
          -------------------------------------------------------

  [-O]verwriting output

File Assignments:

 Here is the input file:

calentamiento 100 --> 300 k = 20 V=cte (ntb=1)
&cntrl
 nstlim = 10000, dt = 0.002, cut = 9., ioutfm = 1,
 ntx = 1, irest = 0, iwrap=0,
 ntpr = 500, ntwr = 500, ntwx = 500,
 tempi = 100.0, temp0 = 300.0,
 ntt = 1,
 ntb = 1,
 ntc = 2, ntf = 2,
 ntr = 1, restraint_wt = 5.0, restraintmask = ":1-228@CA"
&end
&wt
type="END",
&end

Note: ig = -1. Setting random seed to   683973 based on wallclock time in
      microseconds.

--------------------------------------------------------------------------------
   1.  RESOURCE   USE:
--------------------------------------------------------------------------------

 getting box info from netcdf restart file
 NATOM  =   33263 NTYPES =      16 NBONH =   31426 MBONA  =    1876
 NTHETH =    4058 MTHETA =    2538 NPHIH =    8240 MPHIA  =    7974
 NHPARM =       0 NPARM  =       0 NNB   =   59483 NRES   =   10117
 NBONA  =    1876 NTHETA =    2538 NPHIA =    7974 NUMBND =      79
 NUMANG =     183 NPTRA  =     201 NATYP =      39 NPHB   =       0
 IFBOX  =       1 NMXRS  =      34 IFCAP =       0 NEXTRA =       0
 NCOPY  =       0

     BOX TYPE: RECTILINEAR

--------------------------------------------------------------------------------
   2.  CONTROL  DATA  FOR  THE  RUN
--------------------------------------------------------------------------------

default_name

General flags:
     imin    =       0, nmropt  =       0

Nature and format of input:
     ntx     =       1, irest   =       0, ntrx    =       1

Nature and format of output:
     ntxo    =       2, ntpr    =     500, ntrx    =       1, ntwr    =     500
     iwrap   =       0, ntwx    =     500, ntwv    =       0, ntwe    =       0
     ioutfm  =       1, ntwprt  =       0, idecomp =       0, rbornstat=      0

Potential function:
     ntf     =       2, ntb     =       1, igb     =       0, nsnb    =      25
     ipol    =       0, gbsa    =       0, iesp    =       0
     dielc   =   1.00000, cut     =   9.00000, intdiel =   1.00000

Frozen or restrained atoms:
     ibelly  =       0, ntr     =       1
     restraint_wt =   5.00000

Molecular dynamics:
     nstlim  =     10000, nscm    =         0, nrespa  =         1
     t       =   0.00000, dt      =   0.00200, vlimit  =  -1.00000

Berendsen (weak-coupling) temperature regulation:
     temp0   = 300.00000, tempi   = 100.00000, tautp   =   1.00000

SHAKE:
     ntc     =       2, jfastw  =       0
     tol     =   0.00001

Ewald parameters:
     verbose =       0, ew_type =       0, nbflag  =       1, use_pme =       1
     vdwmeth =       1, eedmeth =       1, netfrc  =       1
     Box X =   76.409   Box Y =   83.518   Box Z =   64.067
     Alpha =   90.000   Beta  =   90.000   Gamma =   90.000
     NFFT1 =   80       NFFT2 =   84       NFFT3 =   64
     Cutoff=    9.000   Tol   =0.100E-04
     Ewald Coefficient =  0.30768
     Interpolation order =    4

    LOADING THE CONSTRAINED ATOMS AS GROUPS

   5.  REFERENCE ATOM COORDINATES

  default_name
     Mask :1-228@CA; matches   227 atoms

--------------------------------------------------------------------------------
   3.  ATOMIC COORDINATES AND VELOCITIES
--------------------------------------------------------------------------------

default_name
 begin time read from input coords =     0.000 ps

 Number of triangulated 3-point waters found:     9883

     Sum of charges from parm topology file =  -0.00000010
     Forcing neutrality...

--------------------------------------------------------------------------------
   4.  RESULTS
 NSTEP =        0   TIME(PS) =       0.000  TEMP(K) =   146.43  PRESS =     0.0
 Etot   =   -134952.2247  EKtot   =      9946.1219  EPtot      =   -144898.3466
 BOND   =        93.6195  ANGLE   =       555.7678  DIHED      =      2606.2973
 1-4 NB =       743.7058  1-4 EEL =     10859.3033  VDWAALS    =     28537.5326
 EELEC  =   -188294.5729  EHBOND  =         0.0000  RESTRAINT  =         0.0000
 ------------------------------------------------------------------------------

      A V E R A G E S   O V E R      20 S T E P S

 NSTEP =    10000   TIME(PS) =      20.000  TEMP(K) =   278.05  PRESS =     0.0
 Etot   =    -82489.7156  EKtot   =     18886.4359  EPtot      =   -101376.1515
 BOND   =       645.4225  ANGLE   =      1807.9081  DIHED      =      2917.8933
 1-4 NB =       826.2955  1-4 EEL =     10825.4306  VDWAALS    =     12659.8783
 EELEC  =   -131126.1812  EHBOND  =         0.0000  RESTRAINT  =        67.2015
 EAMBER (non-restraint)  =   -101443.3530
 ------------------------------------------------------------------------------

      R M S  F L U C T U A T I O N S

 NSTEP =    10000   TIME(PS) =      20.000  TEMP(K) =    37.98  PRESS =     0.0
 Etot   =      6520.1536  EKtot   =      2579.8728  EPtot      =      3947.0487
 BOND   =        80.8936  ANGLE   =       201.5769  DIHED      =        47.0789
 1-4 NB =        16.7147  1-4 EEL =        23.1884  VDWAALS    =      1476.4578
 EELEC  =      5080.2538  EHBOND  =         0.0000  RESTRAINT  =         7.5819
 EAMBER (non-restraint)  =      3939.4668
 ------------------------------------------------------------------------------
