-------------------------------------------------------
          Amber 24 PMEMD                              2024
          -------------------------------------------------------

  [-O]verwriting output

File Assignments:

 Here is the input file:

eq2 temp = 300, k = 7.5 V=cte (ntb=1)
&cntrl
 nstlim = 10000, dt = 0.002,
 ntx = 7, irest = 1, iwrap=0, cut = 9.0, ioutfm = 1,
 ntpr = 500, ntwr = 500, ntwx = 500,
 tempi = 300., temp0 = 300.,
 ntt = 1,
 ntb = 1,
 ntc = 2, ntf = 2,
 ntr = 1,
 restraint_wt = 1.5, restraintmask = ":1-228@CA"
&end

Note: ig = -1. Setting random seed to   250463 based on wallclock time in
      microseconds.

--------------------------------------------------------------------------------
   1.  RESOURCE   USE:
--------------------------------------------------------------------------------

 getting box info from netcdf restart file
 NATOM  =   33263 NTYPES =      16 NBONH =   31426 MBONA  =    1876
 NTHETH =    4058 MTHETA =    2538 NPHIH =    8240 MPHIA  =    7974
 NHPARM =       0 NPARM  =       0 NNB   =   59483 NRES   =   10117
 NBONA  =    1876 NTHETA =    2538 NPHIA =    7974 NUMBND =      79
 NUMANG =     183 NPTRA  =     201 NATYP =      39 NPHB   =       0
 IFBOX  =       1 NMXRS  =      34 IFCAP =       0 NEXTRA =       0
 NCOPY  =       0

     BOX TYPE: RECTILINEAR

--------------------------------------------------------------------------------
   2.  CONTROL  DATA  FOR  THE  RUN
--------------------------------------------------------------------------------

default_name

General flags:
     imin    =       0, nmropt  =       0

Nature and format of input:
     ntx     =       7, irest   =       1, ntrx    =       1

Nature and format of output:
     ntxo    =       2, ntpr    =     500, ntrx    =       1, ntwr    =     500
     iwrap   =       0, ntwx    =     500, ntwv    =       0, ntwe    =       0
     ioutfm  =       1, ntwprt  =       0, idecomp =       0, rbornstat=      0

Potential function:
     ntf     =       2, ntb     =       1, igb     =       0, nsnb    =      25
     ipol    =       0, gbsa    =       0, iesp    =       0
     dielc   =   1.00000, cut     =   9.00000, intdiel =   1.00000

Frozen or restrained atoms:
     ibelly  =       0, ntr     =       1
     restraint_wt =   1.50000

Molecular dynamics:
     nstlim  =     10000, nscm    =         0, nrespa  =         1
     t       =   0.00000, dt      =   0.00200, vlimit  =  -1.00000

Berendsen (weak-coupling) temperature regulation:
     temp0   = 300.00000, tempi   = 300.00000, tautp   =   1.00000

SHAKE:
     ntc     =       2, jfastw  =       0
     tol     =   0.00001

Ewald parameters:
     verbose =       0, ew_type =       0, nbflag  =       1, use_pme =       1
     vdwmeth =       1, eedmeth =       1, netfrc  =       1
     Box X =   76.409   Box Y =   83.518   Box Z =   64.067
     Alpha =   90.000   Beta  =   90.000   Gamma =   90.000
     NFFT1 =   80       NFFT2 =   84       NFFT3 =   64
     Cutoff=    9.000   Tol   =0.100E-04
     Ewald Coefficient =  0.30768
     Interpolation order =    4

    LOADING THE CONSTRAINED ATOMS AS GROUPS

   5.  REFERENCE ATOM COORDINATES

  default_name
     Mask :1-228@CA; matches   227 atoms

--------------------------------------------------------------------------------
   3.  ATOMIC COORDINATES AND VELOCITIES
--------------------------------------------------------------------------------

default_name
 begin time read from input coords =    40.000 ps

 Number of triangulated 3-point waters found:     9883

     Sum of charges from parm topology file =  -0.00000010
     Forcing neutrality...

--------------------------------------------------------------------------------
   4.  RESULTS
 NSTEP =      500   TIME(PS) =      41.000  TEMP(K) =   301.72  PRESS =     0.0
 Etot   =    -78617.9961  EKtot   =     20494.3848  EPtot      =    -99112.3809
 BOND   =       641.7762  ANGLE   =      1894.1744  DIHED      =      2921.6699
 1-4 NB =       829.6693  1-4 EEL =     10840.2865  VDWAALS    =     11561.1423
 EELEC  =   -127848.6127  EHBOND  =         0.0000  RESTRAINT  =        47.5133
 EAMBER (non-restraint)  =    -99159.8941
 ------------------------------------------------------------------------------

      A V E R A G E S   O V E R      20 S T E P S

 NSTEP =    10000   TIME(PS) =      60.000  TEMP(K) =   300.03  PRESS =     0.0
 Etot   =    -78645.5781  EKtot   =     20379.3557  EPtot      =    -99024.9338
 BOND   =       666.5415  ANGLE   =      1901.4030  DIHED      =      2912.7682
 1-4 NB =       819.7844  1-4 EEL =     10805.9179  VDWAALS    =     11617.5368
 EELEC  =   -127799.1254  EHBOND  =         0.0000  RESTRAINT  =        50.2398
 EAMBER (non-restraint)  =    -99075.1736
 ------------------------------------------------------------------------------

      R M S  F L U C T U A T I O N S

 NSTEP =    10000   TIME(PS) =      60.000  TEMP(K) =     1.53  PRESS =     0.0
 Etot   =        49.1220  EKtot   =       103.8414  EPtot      =       103.0156
 BOND   =        21.8012  ANGLE   =        33.9114  DIHED      =        19.6630
 1-4 NB =         9.7442  1-4 EEL =        30.1755  VDWAALS    =       140.8056
 EELEC  =       195.2676  EHBOND  =         0.0000  RESTRAINT  =         2.8549
 EAMBER (non-restraint)  =       100.1608
 ------------------------------------------------------------------------------
