-------------------------------------------------------
          Amber 24 PMEMD                              2024
          -------------------------------------------------------

  [-O]verwriting output

File Assignments:

 Here is the input file:

md 5 ns temp = 300 P=cte (ntb=2,ntp=1) No restraints
&cntrl
 nstlim = 15000000, dt = 0.002,
 ntx = 5, irest = 1, cut = 9.0, ioutfm = 1,
 ntpr = 50000, ntwr = 50000, ntwx = 50000,
 iwrap = 1,
 tempi = 300., temp0 = 300.,
 ntt = 1,
 ntb = 2, ntp = 1,
 ntc = 2, ntf = 2,
 ntr = 0,
&end

Note: ig = -1. Setting random seed to   985469 based on wallclock time in
      microseconds.

--------------------------------------------------------------------------------
   1.  RESOURCE   USE:
--------------------------------------------------------------------------------

 getting box info from netcdf restart file
 NATOM  =   33263 NTYPES =      16 NBONH =   31426 MBONA  =    1876
 NTHETH =    4058 MTHETA =    2538 NPHIH =    8240 MPHIA  =    7974
 NHPARM =       0 NPARM  =       0 NNB   =   59483 NRES   =   10117
 NBONA  =    1876 NTHETA =    2538 NPHIA =    7974 NUMBND =      79
 NUMANG =     183 NPTRA  =     201 NATYP =      39 NPHB   =       0
 IFBOX  =       1 NMXRS  =      34 IFCAP =       0 NEXTRA =       0
 NCOPY  =       0

     BOX TYPE: RECTILINEAR

--------------------------------------------------------------------------------
   2.  CONTROL  DATA  FOR  THE  RUN
--------------------------------------------------------------------------------

default_name

General flags:
     imin    =       0, nmropt  =       0

Nature and format of input:
     ntx     =       5, irest   =       1, ntrx    =       1

Nature and format of output:
     ntxo    =       2, ntpr    =   50000, ntrx    =       1, ntwr    =   50000
     iwrap   =       1, ntwx    =   50000, ntwv    =       0, ntwe    =       0
     ioutfm  =       1, ntwprt  =       0, idecomp =       0, rbornstat=      0

Potential function:
     ntf     =       2, ntb     =       2, igb     =       0, nsnb    =      25
     ipol    =       0, gbsa    =       0, iesp    =       0
     dielc   =   1.00000, cut     =   9.00000, intdiel =   1.00000

Frozen or restrained atoms:
     ibelly  =       0, ntr     =       0

Molecular dynamics:
     nstlim  =  15000000, nscm    =      1000, nrespa  =         1
     t       =   0.00000, dt      =   0.00200, vlimit  =  -1.00000

Berendsen (weak-coupling) temperature regulation:
     temp0   = 300.00000, tempi   = 300.00000, tautp   =   1.00000

Pressure regulation:
     ntp     =       1
     pres0   =   1.00000, comp    =  44.60000, taup    =   1.00000

SHAKE:
     ntc     =       2, jfastw  =       0
     tol     =   0.00001

Ewald parameters:
     verbose =       0, ew_type =       0, nbflag  =       1, use_pme =       1
     vdwmeth =       1, eedmeth =       1, netfrc  =       1
     Box X =   71.249   Box Y =   77.878   Box Z =   59.741
     Alpha =   90.000   Beta  =   90.000   Gamma =   90.000
     NFFT1 =   72       NFFT2 =   80       NFFT3 =   64
     Cutoff=    9.000   Tol   =0.100E-04
     Ewald Coefficient =  0.30768
     Interpolation order =    4

--------------------------------------------------------------------------------
   3.  ATOMIC COORDINATES AND VELOCITIES
--------------------------------------------------------------------------------

default_name
 begin time read from input coords =120110.000 ps

 Number of triangulated 3-point waters found:     9883

     Sum of charges from parm topology file =  -0.00000010
     Forcing neutrality...

--------------------------------------------------------------------------------
   4.  RESULTS
 NSTEP =    50000   TIME(PS) =  120210.000  TEMP(K) =   298.34  PRESS =  -124.5
 Etot   =    -80564.2756  EKtot   =     20263.8145  EPtot      =   -100828.0900
 BOND   =       673.2669  ANGLE   =      1900.6825  DIHED      =      2875.1611
 1-4 NB =       831.3334  1-4 EEL =     10678.3152  VDWAALS    =     11802.1082
 EELEC  =   -129588.9573  EHBOND  =         0.0000  RESTRAINT  =         0.0000
 EKCMT  =      8805.5983  VIRIAL  =      9700.2076  VOLUME     =    332799.9947
                                                    Density    =         1.0184
 ------------------------------------------------------------------------------

      A V E R A G E S   O V E R     300 S T E P S

 NSTEP = 15000000   TIME(PS) =  150110.000  TEMP(K) =   299.86  PRESS =     2.5
 Etot   =    -80587.0859  EKtot   =     20366.9636  EPtot      =   -100954.0495
 BOND   =       677.9052  ANGLE   =      1914.1882  DIHED      =      2856.2010
 1-4 NB =       810.6595  1-4 EEL =     10685.3939  VDWAALS    =     11882.3494
 EELEC  =   -129780.7467  EHBOND  =         0.0000  RESTRAINT  =         0.0000
 EKCMT  =      8899.5133  VIRIAL  =      8881.9719  VOLUME     =    331761.0442
                                                    Density    =         1.0216
 ------------------------------------------------------------------------------

      R M S  F L U C T U A T I O N S

 NSTEP = 15000000   TIME(PS) =  150110.000  TEMP(K) =     1.30  PRESS =   128.1
 Etot   =        43.9184  EKtot   =        88.4497  EPtot      =        98.8669
 BOND   =        21.0851  ANGLE   =        33.5443  DIHED      =        19.8300
 1-4 NB =        11.1623  1-4 EEL =        41.6868  VDWAALS    =       142.3275
 EELEC  =       188.6546  EHBOND  =         0.0000  RESTRAINT  =         0.0000
 EKCMT  =        68.1012  VIRIAL  =       919.4994  VOLUME     =       428.1114
                                                    Density    =         0.0013
 ------------------------------------------------------------------------------
