-------------------------------------------------------
          Amber 24 PMEMD                              2024
          -------------------------------------------------------

  [-O]verwriting output

File Assignments:

 Here is the input file:

md 5 ns temp = 300 P=cte (ntb=2,ntp=1) No restraints
&cntrl
 nstlim = 15000000, dt = 0.002,
 ntx = 5, irest = 1, cut = 9.0, ioutfm = 1,
 ntpr = 50000, ntwr = 50000, ntwx = 50000,
 iwrap = 1,
 tempi = 300., temp0 = 300.,
 ntt = 1,
 ntb = 2, ntp = 1,
 ntc = 2, ntf = 2,
 ntr = 0,
&end

Note: ig = -1. Setting random seed to    23892 based on wallclock time in
      microseconds.

--------------------------------------------------------------------------------
   1.  RESOURCE   USE:
--------------------------------------------------------------------------------

 getting box info from netcdf restart file
 NATOM  =   33263 NTYPES =      16 NBONH =   31426 MBONA  =    1876
 NTHETH =    4058 MTHETA =    2538 NPHIH =    8240 MPHIA  =    7974
 NHPARM =       0 NPARM  =       0 NNB   =   59483 NRES   =   10117
 NBONA  =    1876 NTHETA =    2538 NPHIA =    7974 NUMBND =      79
 NUMANG =     183 NPTRA  =     201 NATYP =      39 NPHB   =       0
 IFBOX  =       1 NMXRS  =      34 IFCAP =       0 NEXTRA =       0
 NCOPY  =       0

     BOX TYPE: RECTILINEAR

--------------------------------------------------------------------------------
   2.  CONTROL  DATA  FOR  THE  RUN
--------------------------------------------------------------------------------

default_name

General flags:
     imin    =       0, nmropt  =       0

Nature and format of input:
     ntx     =       5, irest   =       1, ntrx    =       1

Nature and format of output:
     ntxo    =       2, ntpr    =   50000, ntrx    =       1, ntwr    =   50000
     iwrap   =       1, ntwx    =   50000, ntwv    =       0, ntwe    =       0
     ioutfm  =       1, ntwprt  =       0, idecomp =       0, rbornstat=      0

Potential function:
     ntf     =       2, ntb     =       2, igb     =       0, nsnb    =      25
     ipol    =       0, gbsa    =       0, iesp    =       0
     dielc   =   1.00000, cut     =   9.00000, intdiel =   1.00000

Frozen or restrained atoms:
     ibelly  =       0, ntr     =       0

Molecular dynamics:
     nstlim  =  15000000, nscm    =      1000, nrespa  =         1
     t       =   0.00000, dt      =   0.00200, vlimit  =  -1.00000

Berendsen (weak-coupling) temperature regulation:
     temp0   = 300.00000, tempi   = 300.00000, tautp   =   1.00000

Pressure regulation:
     ntp     =       1
     pres0   =   1.00000, comp    =  44.60000, taup    =   1.00000

SHAKE:
     ntc     =       2, jfastw  =       0
     tol     =   0.00001

Ewald parameters:
     verbose =       0, ew_type =       0, nbflag  =       1, use_pme =       1
     vdwmeth =       1, eedmeth =       1, netfrc  =       1
     Box X =   71.230   Box Y =   77.857   Box Z =   59.725
     Alpha =   90.000   Beta  =   90.000   Gamma =   90.000
     NFFT1 =   72       NFFT2 =   80       NFFT3 =   64
     Cutoff=    9.000   Tol   =0.100E-04
     Ewald Coefficient =  0.30768
     Interpolation order =    4

--------------------------------------------------------------------------------
   3.  ATOMIC COORDINATES AND VELOCITIES
--------------------------------------------------------------------------------

default_name
 begin time read from input coords = 30110.000 ps

 Number of triangulated 3-point waters found:     9883

     Sum of charges from parm topology file =  -0.00000010
     Forcing neutrality...

--------------------------------------------------------------------------------
   4.  RESULTS
 NSTEP =    50000   TIME(PS) =   30210.000  TEMP(K) =   303.37  PRESS =   -46.8
 Etot   =    -80604.6360  EKtot   =     20605.5078  EPtot      =   -101210.1438
 BOND   =       668.2271  ANGLE   =      1929.7372  DIHED      =      2875.8935
 1-4 NB =       811.9560  1-4 EEL =     10638.7317  VDWAALS    =     11977.2403
 EELEC  =   -130111.9296  EHBOND  =         0.0000  RESTRAINT  =         0.0000
 EKCMT  =      9021.0152  VIRIAL  =      9356.7068  VOLUME     =    331899.8692
                                                    Density    =         1.0212
 ------------------------------------------------------------------------------

      A V E R A G E S   O V E R     300 S T E P S

 NSTEP = 15000000   TIME(PS) =   60110.000  TEMP(K) =   300.04  PRESS =    -3.8
 Etot   =    -80570.0816  EKtot   =     20379.4856  EPtot      =   -100949.5672
 BOND   =       678.9663  ANGLE   =      1914.3633  DIHED      =      2856.4706
 1-4 NB =       811.8856  1-4 EEL =     10695.1455  VDWAALS    =     11888.3115
 EELEC  =   -129794.7099  EHBOND  =         0.0000  RESTRAINT  =         0.0000
 EKCMT  =      8907.9746  VIRIAL  =      8934.9077  VOLUME     =    331816.9484
                                                    Density    =         1.0215
 ------------------------------------------------------------------------------

      R M S  F L U C T U A T I O N S

 NSTEP = 15000000   TIME(PS) =   60110.000  TEMP(K) =     1.28  PRESS =   135.2
 Etot   =        43.2843  EKtot   =        86.7833  EPtot      =        98.4017
 BOND   =        20.1989  ANGLE   =        31.6226  DIHED      =        18.2695
 1-4 NB =        12.0796  1-4 EEL =        46.0522  VDWAALS    =       136.3719
 EELEC  =       187.1026  EHBOND  =         0.0000  RESTRAINT  =         0.0000
 EKCMT  =        63.1859  VIRIAL  =       974.5793  VOLUME     =       461.1124
                                                    Density    =         0.0014
 ------------------------------------------------------------------------------
