-------------------------------------------------------
          Amber 24 PMEMD                              2024
          -------------------------------------------------------

  [-O]verwriting output

File Assignments:

 Here is the input file:

md 5 ns temp = 300 P=cte (ntb=2,ntp=1) No restraints
&cntrl
 nstlim = 15000000, dt = 0.002,
 ntx = 5, irest = 1, cut = 9.0, ioutfm = 1,
 ntpr = 50000, ntwr = 50000, ntwx = 50000,
 iwrap = 1,
 tempi = 300., temp0 = 300.,
 ntt = 1,
 ntb = 2, ntp = 1,
 ntc = 2, ntf = 2,
 ntr = 0,
&end

Note: ig = -1. Setting random seed to   526900 based on wallclock time in
      microseconds.

--------------------------------------------------------------------------------
   1.  RESOURCE   USE:
--------------------------------------------------------------------------------

 getting box info from netcdf restart file
 NATOM  =   33263 NTYPES =      16 NBONH =   31426 MBONA  =    1876
 NTHETH =    4058 MTHETA =    2538 NPHIH =    8240 MPHIA  =    7974
 NHPARM =       0 NPARM  =       0 NNB   =   59483 NRES   =   10117
 NBONA  =    1876 NTHETA =    2538 NPHIA =    7974 NUMBND =      79
 NUMANG =     183 NPTRA  =     201 NATYP =      39 NPHB   =       0
 IFBOX  =       1 NMXRS  =      34 IFCAP =       0 NEXTRA =       0
 NCOPY  =       0

     BOX TYPE: RECTILINEAR

--------------------------------------------------------------------------------
   2.  CONTROL  DATA  FOR  THE  RUN
--------------------------------------------------------------------------------

default_name

General flags:
     imin    =       0, nmropt  =       0

Nature and format of input:
     ntx     =       5, irest   =       1, ntrx    =       1

Nature and format of output:
     ntxo    =       2, ntpr    =   50000, ntrx    =       1, ntwr    =   50000
     iwrap   =       1, ntwx    =   50000, ntwv    =       0, ntwe    =       0
     ioutfm  =       1, ntwprt  =       0, idecomp =       0, rbornstat=      0

Potential function:
     ntf     =       2, ntb     =       2, igb     =       0, nsnb    =      25
     ipol    =       0, gbsa    =       0, iesp    =       0
     dielc   =   1.00000, cut     =   9.00000, intdiel =   1.00000

Frozen or restrained atoms:
     ibelly  =       0, ntr     =       0

Molecular dynamics:
     nstlim  =  15000000, nscm    =      1000, nrespa  =         1
     t       =   0.00000, dt      =   0.00200, vlimit  =  -1.00000

Berendsen (weak-coupling) temperature regulation:
     temp0   = 300.00000, tempi   = 300.00000, tautp   =   1.00000

Pressure regulation:
     ntp     =       1
     pres0   =   1.00000, comp    =  44.60000, taup    =   1.00000

SHAKE:
     ntc     =       2, jfastw  =       0
     tol     =   0.00001

Ewald parameters:
     verbose =       0, ew_type =       0, nbflag  =       1, use_pme =       1
     vdwmeth =       1, eedmeth =       1, netfrc  =       1
     Box X =   71.216   Box Y =   77.842   Box Z =   59.713
     Alpha =   90.000   Beta  =   90.000   Gamma =   90.000
     NFFT1 =   72       NFFT2 =   80       NFFT3 =   64
     Cutoff=    9.000   Tol   =0.100E-04
     Ewald Coefficient =  0.30768
     Interpolation order =    4

--------------------------------------------------------------------------------
   3.  ATOMIC COORDINATES AND VELOCITIES
--------------------------------------------------------------------------------

default_name
 begin time read from input coords =180110.000 ps

 Number of triangulated 3-point waters found:     9883

     Sum of charges from parm topology file =  -0.00000010
     Forcing neutrality...

--------------------------------------------------------------------------------
   4.  RESULTS
 NSTEP =    50000   TIME(PS) =  180210.000  TEMP(K) =   299.42  PRESS =    78.1
 Etot   =    -80627.7265  EKtot   =     20337.3125  EPtot      =   -100965.0390
 BOND   =       652.0764  ANGLE   =      1881.8324  DIHED      =      2829.6802
 1-4 NB =       832.1078  1-4 EEL =     10680.7765  VDWAALS    =     11935.6433
 EELEC  =   -129777.1557  EHBOND  =         0.0000  RESTRAINT  =         0.0000
 EKCMT  =      8792.5727  VIRIAL  =      8232.7134  VOLUME     =    331932.9810
                                                    Density    =         1.0211
 ------------------------------------------------------------------------------

      A V E R A G E S   O V E R     300 S T E P S

 NSTEP = 15000000   TIME(PS) =  210110.000  TEMP(K) =   299.89  PRESS =    15.6
 Etot   =    -80593.6397  EKtot   =     20369.4133  EPtot      =   -100963.0531
 BOND   =       679.4021  ANGLE   =      1910.5812  DIHED      =      2843.2026
 1-4 NB =       812.4875  1-4 EEL =     10676.1062  VDWAALS    =     11896.6296
 EELEC  =   -129781.4623  EHBOND  =         0.0000  RESTRAINT  =         0.0000
 EKCMT  =      8906.0923  VIRIAL  =      8794.1843  VOLUME     =    331774.3433
                                                    Density    =         1.0216
 ------------------------------------------------------------------------------

      R M S  F L U C T U A T I O N S

 NSTEP = 15000000   TIME(PS) =  210110.000  TEMP(K) =     1.27  PRESS =   133.1
 Etot   =        42.4333  EKtot   =        86.0025  EPtot      =        98.6024
 BOND   =        23.0019  ANGLE   =        30.8684  DIHED      =        19.7057
 1-4 NB =        11.8647  1-4 EEL =        41.5640  VDWAALS    =       144.4704
 EELEC  =       194.6078  EHBOND  =         0.0000  RESTRAINT  =         0.0000
 EKCMT  =        66.5396  VIRIAL  =       960.2950  VOLUME     =       430.8779
                                                    Density    =         0.0013
 ------------------------------------------------------------------------------
