-------------------------------------------------------
          Amber 24 PMEMD                              2024
          -------------------------------------------------------

  [-O]verwriting output

File Assignments:

 Here is the input file:

eq5 temp = 300, k = 1 P=cte (ntb=2, ntp=1)
&cntrl
 nstlim = 5000, dt = 0.002,
 ntx = 7, irest = 1, iwrap = 1, cut = 9.0, ioutfm = 1,
 ntpr = 1000, ntwr = 1000, ntwx = 1000,
 tempi = 300., temp0 = 300.,
 ntt = 1,
 ntb = 2, ntp = 1,
 ntc = 2, ntf = 2,
 ntr = 1, restraint_wt = 0.1, restraintmask = ":1-228@CA"
&end
&wt
type="END",
&end

Note: ig = -1. Setting random seed to   288078 based on wallclock time in
      microseconds.

--------------------------------------------------------------------------------
   1.  RESOURCE   USE:
--------------------------------------------------------------------------------

 getting box info from netcdf restart file
 NATOM  =   33263 NTYPES =      16 NBONH =   31426 MBONA  =    1876
 NTHETH =    4058 MTHETA =    2538 NPHIH =    8240 MPHIA  =    7974
 NHPARM =       0 NPARM  =       0 NNB   =   59483 NRES   =   10117
 NBONA  =    1876 NTHETA =    2538 NPHIA =    7974 NUMBND =      79
 NUMANG =     183 NPTRA  =     201 NATYP =      39 NPHB   =       0
 IFBOX  =       1 NMXRS  =      34 IFCAP =       0 NEXTRA =       0
 NCOPY  =       0

     BOX TYPE: RECTILINEAR

--------------------------------------------------------------------------------
   2.  CONTROL  DATA  FOR  THE  RUN
--------------------------------------------------------------------------------

default_name

General flags:
     imin    =       0, nmropt  =       0

Nature and format of input:
     ntx     =       7, irest   =       1, ntrx    =       1

Nature and format of output:
     ntxo    =       2, ntpr    =    1000, ntrx    =       1, ntwr    =    1000
     iwrap   =       1, ntwx    =    1000, ntwv    =       0, ntwe    =       0
     ioutfm  =       1, ntwprt  =       0, idecomp =       0, rbornstat=      0

Potential function:
     ntf     =       2, ntb     =       2, igb     =       0, nsnb    =      25
     ipol    =       0, gbsa    =       0, iesp    =       0
     dielc   =   1.00000, cut     =   9.00000, intdiel =   1.00000

Frozen or restrained atoms:
     ibelly  =       0, ntr     =       1
     restraint_wt =   0.10000

Molecular dynamics:
     nstlim  =      5000, nscm    =         0, nrespa  =         1
     t       =   0.00000, dt      =   0.00200, vlimit  =  -1.00000

Berendsen (weak-coupling) temperature regulation:
     temp0   = 300.00000, tempi   = 300.00000, tautp   =   1.00000

Pressure regulation:
     ntp     =       1
     pres0   =   1.00000, comp    =  44.60000, taup    =   1.00000

SHAKE:
     ntc     =       2, jfastw  =       0
     tol     =   0.00001

Ewald parameters:
     verbose =       0, ew_type =       0, nbflag  =       1, use_pme =       1
     vdwmeth =       1, eedmeth =       1, netfrc  =       1
     Box X =   76.409   Box Y =   83.518   Box Z =   64.067
     Alpha =   90.000   Beta  =   90.000   Gamma =   90.000
     NFFT1 =   80       NFFT2 =   84       NFFT3 =   64
     Cutoff=    9.000   Tol   =0.100E-04
     Ewald Coefficient =  0.30768
     Interpolation order =    4

    LOADING THE CONSTRAINED ATOMS AS GROUPS

   5.  REFERENCE ATOM COORDINATES

  default_name
     Mask :1-228@CA; matches   227 atoms

--------------------------------------------------------------------------------
   3.  ATOMIC COORDINATES AND VELOCITIES
--------------------------------------------------------------------------------

default_name
 begin time read from input coords =   100.000 ps

 Number of triangulated 3-point waters found:     9883

     Sum of charges from parm topology file =  -0.00000010
     Forcing neutrality...

--------------------------------------------------------------------------------
   4.  RESULTS
 NSTEP =     1000   TIME(PS) =     102.000  TEMP(K) =   299.16  PRESS =  -194.9
 Etot   =    -78962.9743  EKtot   =     20320.3770  EPtot      =    -99283.3512
 BOND   =       680.9646  ANGLE   =      1902.3059  DIHED      =      2950.4514
 1-4 NB =       818.1448  1-4 EEL =     10765.6049  VDWAALS    =     11850.4622
 EELEC  =   -128264.1188  EHBOND  =         0.0000  RESTRAINT  =        12.8339
 EAMBER (non-restraint)  =    -99296.1851
 EKCMT  =      8876.9052  VIRIAL  =     10564.7907  VOLUME     =    401175.3722
                                                    Density    =         0.8449
 ------------------------------------------------------------------------------

      A V E R A G E S   O V E R       5 S T E P S

 NSTEP =     5000   TIME(PS) =     110.000  TEMP(K) =   299.71  PRESS =  -297.3
 Etot   =    -79279.0593  EKtot   =     20357.6734  EPtot      =    -99636.7328
 BOND   =       672.2309  ANGLE   =      1868.1803  DIHED      =      2906.8573
 1-4 NB =       812.1372  1-4 EEL =     10782.9314  VDWAALS    =     11654.4684
 EELEC  =   -128345.1075  EHBOND  =         0.0000  RESTRAINT  =        11.5692
 EAMBER (non-restraint)  =    -99648.3020
 EKCMT  =      8874.9800  VIRIAL  =     11316.0194  VOLUME     =    381879.0238
                                                    Density    =         0.8887
 ------------------------------------------------------------------------------

      R M S  F L U C T U A T I O N S

 NSTEP =     5000   TIME(PS) =     110.000  TEMP(K) =     0.63  PRESS =    68.5
 Etot   =       187.4648  EKtot   =        42.4972  EPtot      =       190.5041
 BOND   =        14.9120  ANGLE   =        26.9820  DIHED      =        31.5842
 1-4 NB =         6.9702  1-4 EEL =        14.6716  VDWAALS    =       125.4192
 EELEC  =        87.7489  EHBOND  =         0.0000  RESTRAINT  =         1.6279
 EAMBER (non-restraint)  =       188.8762
 EKCMT  =        24.9606  VIRIAL  =       534.3232  VOLUME     =     13531.5672
                                                    Density    =         0.0315
 ------------------------------------------------------------------------------
