-------------------------------------------------------
          Amber 24 PMEMD                              2024
          -------------------------------------------------------

  [-O]verwriting output

File Assignments:

 Here is the input file:

eq5 temp = 300, k = 1 P=cte (ntb=2, ntp=1)
&cntrl
 nstlim = 5000, dt = 0.002,
 ntx = 7, irest = 1, iwrap = 1, cut = 9.0, ioutfm = 1,
 ntpr = 1000, ntwr = 1000, ntwx = 1000,
 tempi = 300., temp0 = 300.,
 ntt = 1,
 ntb = 2, ntp = 1,
 ntc = 2, ntf = 2,
 ntr = 1, restraint_wt = 0.1, restraintmask = ":1-226@CA"
&end
&wt
type="END",
&end

Note: ig = -1. Setting random seed to   795818 based on wallclock time in
      microseconds.

--------------------------------------------------------------------------------
   1.  RESOURCE   USE:
--------------------------------------------------------------------------------

 getting box info from netcdf restart file
 NATOM  =   41017 NTYPES =      16 NBONH =   39196 MBONA  =    1859
 NTHETH =    4031 MTHETA =    2515 NPHIH =    8177 MPHIA  =    7897
 NHPARM =       0 NPARM  =       0 NNB   =   69708 NRES   =   12709
 NBONA  =    1859 NTHETA =    2515 NPHIA =    7897 NUMBND =      79
 NUMANG =     183 NPTRA  =     201 NATYP =      39 NPHB   =       0
 IFBOX  =       1 NMXRS  =      37 IFCAP =       0 NEXTRA =       0
 NCOPY  =       0

     BOX TYPE: RECTILINEAR

--------------------------------------------------------------------------------
   2.  CONTROL  DATA  FOR  THE  RUN
--------------------------------------------------------------------------------

default_name

General flags:
     imin    =       0, nmropt  =       0

Nature and format of input:
     ntx     =       7, irest   =       1, ntrx    =       1

Nature and format of output:
     ntxo    =       2, ntpr    =    1000, ntrx    =       1, ntwr    =    1000
     iwrap   =       1, ntwx    =    1000, ntwv    =       0, ntwe    =       0
     ioutfm  =       1, ntwprt  =       0, idecomp =       0, rbornstat=      0

Potential function:
     ntf     =       2, ntb     =       2, igb     =       0, nsnb    =      25
     ipol    =       0, gbsa    =       0, iesp    =       0
     dielc   =   1.00000, cut     =   9.00000, intdiel =   1.00000

Frozen or restrained atoms:
     ibelly  =       0, ntr     =       1
     restraint_wt =   0.10000

Molecular dynamics:
     nstlim  =      5000, nscm    =         0, nrespa  =         1
     t       =   0.00000, dt      =   0.00200, vlimit  =  -1.00000

Berendsen (weak-coupling) temperature regulation:
     temp0   = 300.00000, tempi   = 300.00000, tautp   =   1.00000

Pressure regulation:
     ntp     =       1
     pres0   =   1.00000, comp    =  44.60000, taup    =   1.00000

SHAKE:
     ntc     =       2, jfastw  =       0
     tol     =   0.00001

Ewald parameters:
     verbose =       0, ew_type =       0, nbflag  =       1, use_pme =       1
     vdwmeth =       1, eedmeth =       1, netfrc  =       1
     Box X =   71.492   Box Y =   81.041   Box Z =   87.051
     Alpha =   90.000   Beta  =   90.000   Gamma =   90.000
     NFFT1 =   72       NFFT2 =   84       NFFT3 =   96
     Cutoff=    9.000   Tol   =0.100E-04
     Ewald Coefficient =  0.30768
     Interpolation order =    4

    LOADING THE CONSTRAINED ATOMS AS GROUPS

   5.  REFERENCE ATOM COORDINATES

  default_name
     Mask :1-226@CA; matches   225 atoms

--------------------------------------------------------------------------------
   3.  ATOMIC COORDINATES AND VELOCITIES
--------------------------------------------------------------------------------

default_name
 begin time read from input coords =   100.000 ps

 Number of triangulated 3-point waters found:    12477

     Sum of charges from parm topology file =  -0.00000310
     Forcing neutrality...

--------------------------------------------------------------------------------
   4.  RESULTS
 NSTEP =     1000   TIME(PS) =     102.000  TEMP(K) =   300.77  PRESS =  -201.5
 Etot   =    -98725.4870  EKtot   =     25059.4980  EPtot      =   -123784.9851
 BOND   =       689.6851  ANGLE   =      1924.6482  DIHED      =      2883.9105
 1-4 NB =       789.4492  1-4 EEL =     10585.5161  VDWAALS    =     15595.9514
 EELEC  =   -156262.4659  EHBOND  =         0.0000  RESTRAINT  =         8.3204
 EAMBER (non-restraint)  =   -123793.3055
 EKCMT  =     11278.9143  VIRIAL  =     13417.0192  VOLUME     =    491554.7217
                                                    Density    =         0.8466
 ------------------------------------------------------------------------------

      A V E R A G E S   O V E R       5 S T E P S

 NSTEP =     5000   TIME(PS) =     110.000  TEMP(K) =   300.33  PRESS =  -208.8
 Etot   =    -99205.8494  EKtot   =     25022.9090  EPtot      =   -124228.7584
 BOND   =       683.6478  ANGLE   =      1911.5217  DIHED      =      2886.3302
 1-4 NB =       806.2607  1-4 EEL =     10609.2945  VDWAALS    =     15502.8494
 EELEC  =   -156639.2079  EHBOND  =         0.0000  RESTRAINT  =        10.5452
 EAMBER (non-restraint)  =   -124239.3036
 EKCMT  =     11195.6172  VIRIAL  =     13306.7474  VOLUME     =    469835.4932
                                                    Density    =         0.8867
 ------------------------------------------------------------------------------

      R M S  F L U C T U A T I O N S

 NSTEP =     5000   TIME(PS) =     110.000  TEMP(K) =     0.51  PRESS =    31.6
 Etot   =       315.8631  EKtot   =        42.2676  EPtot      =       299.4737
 BOND   =        12.9528  ANGLE   =        18.6964  DIHED      =         9.9395
 1-4 NB =         9.8855  1-4 EEL =        20.5346  VDWAALS    =        76.9157
 EELEC  =       291.4299  EHBOND  =         0.0000  RESTRAINT  =         1.3558
 EAMBER (non-restraint)  =       298.1178
 EKCMT  =        52.6278  VIRIAL  =       257.3300  VOLUME     =     15279.7121
                                                    Density    =         0.0288
 ------------------------------------------------------------------------------
