-------------------------------------------------------
          Amber 24 PMEMD                              2024
          -------------------------------------------------------

  [-O]verwriting output

File Assignments:

 Here is the input file:

md 5 ns temp = 300 P=cte (ntb=2,ntp=1) No restraints
&cntrl
 nstlim = 15000000, dt = 0.002,
 ntx = 5, irest = 1, cut = 9.0, ioutfm = 1,
 ntpr = 50000, ntwr = 50000, ntwx = 50000,
 iwrap = 1,
 tempi = 300., temp0 = 300.,
 ntt = 1,
 ntb = 2, ntp = 1,
 ntc = 2, ntf = 2,
 ntr = 0,
&end

Note: ig = -1. Setting random seed to   108624 based on wallclock time in
      microseconds.

--------------------------------------------------------------------------------
   1.  RESOURCE   USE:
--------------------------------------------------------------------------------

 getting box info from netcdf restart file
 NATOM  =   41017 NTYPES =      16 NBONH =   39196 MBONA  =    1859
 NTHETH =    4031 MTHETA =    2515 NPHIH =    8177 MPHIA  =    7897
 NHPARM =       0 NPARM  =       0 NNB   =   69708 NRES   =   12709
 NBONA  =    1859 NTHETA =    2515 NPHIA =    7897 NUMBND =      79
 NUMANG =     183 NPTRA  =     201 NATYP =      39 NPHB   =       0
 IFBOX  =       1 NMXRS  =      37 IFCAP =       0 NEXTRA =       0
 NCOPY  =       0

     BOX TYPE: RECTILINEAR

--------------------------------------------------------------------------------
   2.  CONTROL  DATA  FOR  THE  RUN
--------------------------------------------------------------------------------

default_name

General flags:
     imin    =       0, nmropt  =       0

Nature and format of input:
     ntx     =       5, irest   =       1, ntrx    =       1

Nature and format of output:
     ntxo    =       2, ntpr    =   50000, ntrx    =       1, ntwr    =   50000
     iwrap   =       1, ntwx    =   50000, ntwv    =       0, ntwe    =       0
     ioutfm  =       1, ntwprt  =       0, idecomp =       0, rbornstat=      0

Potential function:
     ntf     =       2, ntb     =       2, igb     =       0, nsnb    =      25
     ipol    =       0, gbsa    =       0, iesp    =       0
     dielc   =   1.00000, cut     =   9.00000, intdiel =   1.00000

Frozen or restrained atoms:
     ibelly  =       0, ntr     =       0

Molecular dynamics:
     nstlim  =  15000000, nscm    =      1000, nrespa  =         1
     t       =   0.00000, dt      =   0.00200, vlimit  =  -1.00000

Berendsen (weak-coupling) temperature regulation:
     temp0   = 300.00000, tempi   = 300.00000, tautp   =   1.00000

Pressure regulation:
     ntp     =       1
     pres0   =   1.00000, comp    =  44.60000, taup    =   1.00000

SHAKE:
     ntc     =       2, jfastw  =       0
     tol     =   0.00001

Ewald parameters:
     verbose =       0, ew_type =       0, nbflag  =       1, use_pme =       1
     vdwmeth =       1, eedmeth =       1, netfrc  =       1
     Box X =   66.762   Box Y =   75.679   Box Z =   81.292
     Alpha =   90.000   Beta  =   90.000   Gamma =   90.000
     NFFT1 =   64       NFFT2 =   80       NFFT3 =   84
     Cutoff=    9.000   Tol   =0.100E-04
     Ewald Coefficient =  0.30768
     Interpolation order =    4

--------------------------------------------------------------------------------
   3.  ATOMIC COORDINATES AND VELOCITIES
--------------------------------------------------------------------------------

default_name
 begin time read from input coords =120110.000 ps

 Number of triangulated 3-point waters found:    12477

     Sum of charges from parm topology file =  -0.00000310
     Forcing neutrality...

--------------------------------------------------------------------------------
   4.  RESULTS
 NSTEP =    50000   TIME(PS) =  120210.000  TEMP(K) =   300.64  PRESS =    85.5
 Etot   =   -100718.4953  EKtot   =     25047.8750  EPtot      =   -125766.3703
 BOND   =       663.4314  ANGLE   =      1903.7627  DIHED      =      2842.6467
 1-4 NB =       804.1011  1-4 EEL =     10523.5807  VDWAALS    =     15761.3674
 EELEC  =   -158265.2602  EHBOND  =         0.0000  RESTRAINT  =         0.0000
 EKCMT  =     11273.0085  VIRIAL  =     10515.9375  VOLUME     =    410333.8105
                                                    Density    =         1.0142
 ------------------------------------------------------------------------------

      A V E R A G E S   O V E R     300 S T E P S

 NSTEP = 15000000   TIME(PS) =  150110.000  TEMP(K) =   299.94  PRESS =     6.8
 Etot   =   -100729.6583  EKtot   =     24989.7572  EPtot      =   -125719.4155
 BOND   =       673.8284  ANGLE   =      1874.2096  DIHED      =      2825.7020
 1-4 NB =       809.9523  1-4 EEL =     10538.3533  VDWAALS    =     15588.8764
 EELEC  =   -158030.3375  EHBOND  =         0.0000  RESTRAINT  =         0.0000
 EKCMT  =     11236.9519  VIRIAL  =     11176.6557  VOLUME     =    410260.5805
                                                    Density    =         1.0144
 ------------------------------------------------------------------------------

      R M S  F L U C T U A T I O N S

 NSTEP = 15000000   TIME(PS) =  150110.000  TEMP(K) =     1.09  PRESS =   107.1
 Etot   =        45.2707  EKtot   =        91.0542  EPtot      =       104.9701
 BOND   =        20.7994  ANGLE   =        31.9953  DIHED      =        20.1033
 1-4 NB =        11.6984  1-4 EEL =        43.2998  VDWAALS    =       163.7712
 EELEC  =       220.2489  EHBOND  =         0.0000  RESTRAINT  =         0.0000
 EKCMT  =        76.5048  VIRIAL  =       957.9348  VOLUME     =       472.0233
                                                    Density    =         0.0012
 ------------------------------------------------------------------------------
