-------------------------------------------------------
          Amber 24 PMEMD                              2024
          -------------------------------------------------------

  [-O]verwriting output

File Assignments:

 Here is the input file:

md 5 ns temp = 300 P=cte (ntb=2,ntp=1) No restraints
&cntrl
 nstlim = 15000000, dt = 0.002,
 ntx = 5, irest = 1, cut = 9.0, ioutfm = 1,
 ntpr = 50000, ntwr = 50000, ntwx = 50000,
 iwrap = 1,
 tempi = 300., temp0 = 300.,
 ntt = 1,
 ntb = 2, ntp = 1,
 ntc = 2, ntf = 2,
 ntr = 0,
&end

Note: ig = -1. Setting random seed to   427236 based on wallclock time in
      microseconds.

--------------------------------------------------------------------------------
   1.  RESOURCE   USE:
--------------------------------------------------------------------------------

 getting box info from netcdf restart file
 NATOM  =   41017 NTYPES =      16 NBONH =   39196 MBONA  =    1859
 NTHETH =    4031 MTHETA =    2515 NPHIH =    8177 MPHIA  =    7897
 NHPARM =       0 NPARM  =       0 NNB   =   69708 NRES   =   12709
 NBONA  =    1859 NTHETA =    2515 NPHIA =    7897 NUMBND =      79
 NUMANG =     183 NPTRA  =     201 NATYP =      39 NPHB   =       0
 IFBOX  =       1 NMXRS  =      37 IFCAP =       0 NEXTRA =       0
 NCOPY  =       0

     BOX TYPE: RECTILINEAR

--------------------------------------------------------------------------------
   2.  CONTROL  DATA  FOR  THE  RUN
--------------------------------------------------------------------------------

default_name

General flags:
     imin    =       0, nmropt  =       0

Nature and format of input:
     ntx     =       5, irest   =       1, ntrx    =       1

Nature and format of output:
     ntxo    =       2, ntpr    =   50000, ntrx    =       1, ntwr    =   50000
     iwrap   =       1, ntwx    =   50000, ntwv    =       0, ntwe    =       0
     ioutfm  =       1, ntwprt  =       0, idecomp =       0, rbornstat=      0

Potential function:
     ntf     =       2, ntb     =       2, igb     =       0, nsnb    =      25
     ipol    =       0, gbsa    =       0, iesp    =       0
     dielc   =   1.00000, cut     =   9.00000, intdiel =   1.00000

Frozen or restrained atoms:
     ibelly  =       0, ntr     =       0

Molecular dynamics:
     nstlim  =  15000000, nscm    =      1000, nrespa  =         1
     t       =   0.00000, dt      =   0.00200, vlimit  =  -1.00000

Berendsen (weak-coupling) temperature regulation:
     temp0   = 300.00000, tempi   = 300.00000, tautp   =   1.00000

Pressure regulation:
     ntp     =       1
     pres0   =   1.00000, comp    =  44.60000, taup    =   1.00000

SHAKE:
     ntc     =       2, jfastw  =       0
     tol     =   0.00001

Ewald parameters:
     verbose =       0, ew_type =       0, nbflag  =       1, use_pme =       1
     vdwmeth =       1, eedmeth =       1, netfrc  =       1
     Box X =   68.753   Box Y =   77.936   Box Z =   83.716
     Alpha =   90.000   Beta  =   90.000   Gamma =   90.000
     NFFT1 =   72       NFFT2 =   80       NFFT3 =   84
     Cutoff=    9.000   Tol   =0.100E-04
     Ewald Coefficient =  0.30768
     Interpolation order =    4

--------------------------------------------------------------------------------
   3.  ATOMIC COORDINATES AND VELOCITIES
--------------------------------------------------------------------------------

Cpptraj Generated Restart
 begin time read from input coords =   110.000 ps

 Number of triangulated 3-point waters found:    12477

     Sum of charges from parm topology file =  -0.00000310
     Forcing neutrality...

--------------------------------------------------------------------------------
   4.  RESULTS
 NSTEP =    50000   TIME(PS) =     210.000  TEMP(K) =   299.94  PRESS =    42.1
 Etot   =   -100635.5534  EKtot   =     24989.4941  EPtot      =   -125625.0476
 BOND   =       681.1727  ANGLE   =      1906.2316  DIHED      =      2850.9696
 1-4 NB =       801.9573  1-4 EEL =     10591.2871  VDWAALS    =     15824.4604
 EELEC  =   -158281.1263  EHBOND  =         0.0000  RESTRAINT  =         0.0000
 EKCMT  =     11222.3589  VIRIAL  =     10849.6931  VOLUME     =    410387.7861
                                                    Density    =         1.0141
 ------------------------------------------------------------------------------

      A V E R A G E S   O V E R     300 S T E P S

 NSTEP = 15000000   TIME(PS) =   30110.000  TEMP(K) =   300.09  PRESS =    -0.3
 Etot   =   -100696.9732  EKtot   =     25002.0111  EPtot      =   -125698.9842
 BOND   =       674.8821  ANGLE   =      1880.0502  DIHED      =      2833.9961
 1-4 NB =       804.6590  1-4 EEL =     10528.4106  VDWAALS    =     15605.1924
 EELEC  =   -158026.1746  EHBOND  =         0.0000  RESTRAINT  =         0.0000
 EKCMT  =     11244.9070  VIRIAL  =     11247.3997  VOLUME     =    410253.6998
                                                    Density    =         1.0144
 ------------------------------------------------------------------------------

      R M S  F L U C T U A T I O N S

 NSTEP = 15000000   TIME(PS) =   30110.000  TEMP(K) =     1.10  PRESS =   115.5
 Etot   =        44.5662  EKtot   =        91.8194  EPtot      =       100.2899
 BOND   =        22.2590  ANGLE   =        32.3463  DIHED      =        21.5296
 1-4 NB =        13.1679  1-4 EEL =        43.2962  VDWAALS    =       140.0252
 EELEC  =       188.3200  EHBOND  =         0.0000  RESTRAINT  =         0.0000
 EKCMT  =        68.9583  VIRIAL  =      1029.7015  VOLUME     =       498.7805
                                                    Density    =         0.0012
 ------------------------------------------------------------------------------
