-------------------------------------------------------
          Amber 24 PMEMD                              2024
          -------------------------------------------------------

  [-O]verwriting output

File Assignments:

 Here is the input file:

calentamiento 100 --> 300 k = 20 V=cte (ntb=1)
&cntrl
 nstlim = 10000, dt = 0.002, cut = 9., ioutfm = 1,
 ntx = 1, irest = 0, iwrap=0,
 ntpr = 500, ntwr = 500, ntwx = 500,
 tempi = 100.0, temp0 = 300.0,
 ntt = 1,
 ntb = 1,
 ntc = 2, ntf = 2,
 ntr = 1, restraint_wt = 5.0, restraintmask = ":1-226@CA"
&end
&wt
type="END",
&end

Note: ig = -1. Setting random seed to   176117 based on wallclock time in
      microseconds.

--------------------------------------------------------------------------------
   1.  RESOURCE   USE:
--------------------------------------------------------------------------------

 getting box info from netcdf restart file
 NATOM  =   41017 NTYPES =      16 NBONH =   39196 MBONA  =    1859
 NTHETH =    4031 MTHETA =    2515 NPHIH =    8177 MPHIA  =    7897
 NHPARM =       0 NPARM  =       0 NNB   =   69708 NRES   =   12709
 NBONA  =    1859 NTHETA =    2515 NPHIA =    7897 NUMBND =      79
 NUMANG =     183 NPTRA  =     201 NATYP =      39 NPHB   =       0
 IFBOX  =       1 NMXRS  =      37 IFCAP =       0 NEXTRA =       0
 NCOPY  =       0

     BOX TYPE: RECTILINEAR

--------------------------------------------------------------------------------
   2.  CONTROL  DATA  FOR  THE  RUN
--------------------------------------------------------------------------------

default_name

General flags:
     imin    =       0, nmropt  =       0

Nature and format of input:
     ntx     =       1, irest   =       0, ntrx    =       1

Nature and format of output:
     ntxo    =       2, ntpr    =     500, ntrx    =       1, ntwr    =     500
     iwrap   =       0, ntwx    =     500, ntwv    =       0, ntwe    =       0
     ioutfm  =       1, ntwprt  =       0, idecomp =       0, rbornstat=      0

Potential function:
     ntf     =       2, ntb     =       1, igb     =       0, nsnb    =      25
     ipol    =       0, gbsa    =       0, iesp    =       0
     dielc   =   1.00000, cut     =   9.00000, intdiel =   1.00000

Frozen or restrained atoms:
     ibelly  =       0, ntr     =       1
     restraint_wt =   5.00000

Molecular dynamics:
     nstlim  =     10000, nscm    =         0, nrespa  =         1
     t       =   0.00000, dt      =   0.00200, vlimit  =  -1.00000

Berendsen (weak-coupling) temperature regulation:
     temp0   = 300.00000, tempi   = 100.00000, tautp   =   1.00000

SHAKE:
     ntc     =       2, jfastw  =       0
     tol     =   0.00001

Ewald parameters:
     verbose =       0, ew_type =       0, nbflag  =       1, use_pme =       1
     vdwmeth =       1, eedmeth =       1, netfrc  =       1
     Box X =   71.492   Box Y =   81.041   Box Z =   87.051
     Alpha =   90.000   Beta  =   90.000   Gamma =   90.000
     NFFT1 =   72       NFFT2 =   84       NFFT3 =   96
     Cutoff=    9.000   Tol   =0.100E-04
     Ewald Coefficient =  0.30768
     Interpolation order =    4

    LOADING THE CONSTRAINED ATOMS AS GROUPS

   5.  REFERENCE ATOM COORDINATES

  default_name
     Mask :1-226@CA; matches   225 atoms

--------------------------------------------------------------------------------
   3.  ATOMIC COORDINATES AND VELOCITIES
--------------------------------------------------------------------------------

default_name
 begin time read from input coords =     0.000 ps

 Number of triangulated 3-point waters found:    12477

     Sum of charges from parm topology file =  -0.00000310
     Forcing neutrality...

--------------------------------------------------------------------------------
   4.  RESULTS
 NSTEP =        0   TIME(PS) =       0.000  TEMP(K) =   146.70  PRESS =     0.0
 Etot   =   -168826.8257  EKtot   =     12222.6183  EPtot      =   -181049.4439
 BOND   =        99.0383  ANGLE   =       540.7344  DIHED      =      2595.8761
 1-4 NB =       728.1366  1-4 EEL =     10699.4721  VDWAALS    =     36870.2777
 EELEC  =   -232582.9792  EHBOND  =         0.0000  RESTRAINT  =         0.0000
 ------------------------------------------------------------------------------

      A V E R A G E S   O V E R      20 S T E P S

 NSTEP =    10000   TIME(PS) =      20.000  TEMP(K) =   277.36  PRESS =     0.0
 Etot   =   -103560.1996  EKtot   =     23109.0861  EPtot      =   -126669.2856
 BOND   =       641.4935  ANGLE   =      1805.0984  DIHED      =      2894.1741
 1-4 NB =       813.4654  1-4 EEL =     10665.8398  VDWAALS    =     16730.1332
 EELEC  =   -160283.5216  EHBOND  =         0.0000  RESTRAINT  =        64.0316
 EAMBER (non-restraint)  =   -126733.3173
 ------------------------------------------------------------------------------

      R M S  F L U C T U A T I O N S

 NSTEP =    10000   TIME(PS) =      20.000  TEMP(K) =    38.02  PRESS =     0.0
 Etot   =      8099.2091  EKtot   =      3167.7945  EPtot      =      4941.5882
 BOND   =        90.0229  ANGLE   =       191.9951  DIHED      =        46.1728
 1-4 NB =        14.6787  1-4 EEL =        26.9560  VDWAALS    =      1916.7326
 EELEC  =      6525.7769  EHBOND  =         0.0000  RESTRAINT  =         7.0649
 EAMBER (non-restraint)  =      4934.5233
 ------------------------------------------------------------------------------
