-------------------------------------------------------
          Amber 24 PMEMD                              2024
          -------------------------------------------------------

  [-O]verwriting output

File Assignments:

 Here is the input file:

md 5 ns temp = 300 P=cte (ntb=2,ntp=1) No restraints
&cntrl
 nstlim = 15000000, dt = 0.002,
 ntx = 5, irest = 1, cut = 9.0, ioutfm = 1,
 ntpr = 50000, ntwr = 50000, ntwx = 50000,
 iwrap = 1,
 tempi = 300., temp0 = 300.,
 ntt = 1,
 ntb = 2, ntp = 1,
 ntc = 2, ntf = 2,
 ntr = 0,
&end

Note: ig = -1. Setting random seed to   257521 based on wallclock time in
      microseconds.

--------------------------------------------------------------------------------
   1.  RESOURCE   USE:
--------------------------------------------------------------------------------

 getting box info from netcdf restart file
 NATOM  =   41017 NTYPES =      16 NBONH =   39196 MBONA  =    1859
 NTHETH =    4031 MTHETA =    2515 NPHIH =    8177 MPHIA  =    7897
 NHPARM =       0 NPARM  =       0 NNB   =   69708 NRES   =   12709
 NBONA  =    1859 NTHETA =    2515 NPHIA =    7897 NUMBND =      79
 NUMANG =     183 NPTRA  =     201 NATYP =      39 NPHB   =       0
 IFBOX  =       1 NMXRS  =      37 IFCAP =       0 NEXTRA =       0
 NCOPY  =       0

     BOX TYPE: RECTILINEAR

--------------------------------------------------------------------------------
   2.  CONTROL  DATA  FOR  THE  RUN
--------------------------------------------------------------------------------

default_name

General flags:
     imin    =       0, nmropt  =       0

Nature and format of input:
     ntx     =       5, irest   =       1, ntrx    =       1

Nature and format of output:
     ntxo    =       2, ntpr    =   50000, ntrx    =       1, ntwr    =   50000
     iwrap   =       1, ntwx    =   50000, ntwv    =       0, ntwe    =       0
     ioutfm  =       1, ntwprt  =       0, idecomp =       0, rbornstat=      0

Potential function:
     ntf     =       2, ntb     =       2, igb     =       0, nsnb    =      25
     ipol    =       0, gbsa    =       0, iesp    =       0
     dielc   =   1.00000, cut     =   9.00000, intdiel =   1.00000

Frozen or restrained atoms:
     ibelly  =       0, ntr     =       0

Molecular dynamics:
     nstlim  =  15000000, nscm    =      1000, nrespa  =         1
     t       =   0.00000, dt      =   0.00200, vlimit  =  -1.00000

Berendsen (weak-coupling) temperature regulation:
     temp0   = 300.00000, tempi   = 300.00000, tautp   =   1.00000

Pressure regulation:
     ntp     =       1
     pres0   =   1.00000, comp    =  44.60000, taup    =   1.00000

SHAKE:
     ntc     =       2, jfastw  =       0
     tol     =   0.00001

Ewald parameters:
     verbose =       0, ew_type =       0, nbflag  =       1, use_pme =       1
     vdwmeth =       1, eedmeth =       1, netfrc  =       1
     Box X =   66.772   Box Y =   75.691   Box Z =   81.304
     Alpha =   90.000   Beta  =   90.000   Gamma =   90.000
     NFFT1 =   64       NFFT2 =   80       NFFT3 =   84
     Cutoff=    9.000   Tol   =0.100E-04
     Ewald Coefficient =  0.30768
     Interpolation order =    4

--------------------------------------------------------------------------------
   3.  ATOMIC COORDINATES AND VELOCITIES
--------------------------------------------------------------------------------

default_name
 begin time read from input coords =270110.000 ps

 Number of triangulated 3-point waters found:    12477

     Sum of charges from parm topology file =  -0.00000310
     Forcing neutrality...

--------------------------------------------------------------------------------
   4.  RESULTS
 NSTEP =    50000   TIME(PS) =  270210.000  TEMP(K) =   298.55  PRESS =   -30.7
 Etot   =   -100609.8107  EKtot   =     24873.8887  EPtot      =   -125483.6994
 BOND   =       663.5324  ANGLE   =      1850.8235  DIHED      =      2857.6254
 1-4 NB =       821.9267  1-4 EEL =     10596.5243  VDWAALS    =     15506.7363
 EELEC  =   -157780.8680  EHBOND  =         0.0000  RESTRAINT  =         0.0000
 EKCMT  =     11131.8057  VIRIAL  =     11404.0317  VOLUME     =    410407.5413
                                                    Density    =         1.0140
 ------------------------------------------------------------------------------

      A V E R A G E S   O V E R     300 S T E P S

 NSTEP = 15000000   TIME(PS) =  300110.000  TEMP(K) =   299.87  PRESS =    -3.6
 Etot   =   -100726.4598  EKtot   =     24983.6995  EPtot      =   -125710.1593
 BOND   =       671.1235  ANGLE   =      1875.4048  DIHED      =      2828.5153
 1-4 NB =       804.8433  1-4 EEL =     10510.6649  VDWAALS    =     15588.0556
 EELEC  =   -157988.7668  EHBOND  =         0.0000  RESTRAINT  =         0.0000
 EKCMT  =     11230.4831  VIRIAL  =     11262.5796  VOLUME     =    410308.5420
                                                    Density    =         1.0143
 ------------------------------------------------------------------------------

      R M S  F L U C T U A T I O N S

 NSTEP = 15000000   TIME(PS) =  300110.000  TEMP(K) =     1.17  PRESS =   111.5
 Etot   =        44.2103  EKtot   =        97.7517  EPtot      =       109.0000
 BOND   =        21.0819  ANGLE   =        32.6239  DIHED      =        18.7812
 1-4 NB =        11.7241  1-4 EEL =        43.2024  VDWAALS    =       148.4663
 EELEC  =       197.5261  EHBOND  =         0.0000  RESTRAINT  =         0.0000
 EKCMT  =        71.4444  VIRIAL  =       988.5799  VOLUME     =       446.7889
                                                    Density    =         0.0011
 ------------------------------------------------------------------------------
