-------------------------------------------------------
          Amber 24 PMEMD                              2024
          -------------------------------------------------------

  [-O]verwriting output

File Assignments:

 Here is the input file:

eq3 temp = 300, k = 5 V=cte (ntb=1)
&cntrl
 nstlim = 10000, dt = 0.002,
 ntx = 7, irest = 1, iwrap=0, cut = 9.0, ioutfm = 1,
 ntpr = 500, ntwr = 500, ntwx =500,
 tempi = 300., temp0 = 300.,
 ntt = 1,
 ntb = 1,
 ntc = 2, ntf = 2,
 ntr = 1,
 restraint_wt = 0.5, restraintmask = ":1-226@CA"
&end

Note: ig = -1. Setting random seed to   423612 based on wallclock time in
      microseconds.

--------------------------------------------------------------------------------
   1.  RESOURCE   USE:
--------------------------------------------------------------------------------

 getting box info from netcdf restart file
 NATOM  =   41017 NTYPES =      16 NBONH =   39196 MBONA  =    1859
 NTHETH =    4031 MTHETA =    2515 NPHIH =    8177 MPHIA  =    7897
 NHPARM =       0 NPARM  =       0 NNB   =   69708 NRES   =   12709
 NBONA  =    1859 NTHETA =    2515 NPHIA =    7897 NUMBND =      79
 NUMANG =     183 NPTRA  =     201 NATYP =      39 NPHB   =       0
 IFBOX  =       1 NMXRS  =      37 IFCAP =       0 NEXTRA =       0
 NCOPY  =       0

     BOX TYPE: RECTILINEAR

--------------------------------------------------------------------------------
   2.  CONTROL  DATA  FOR  THE  RUN
--------------------------------------------------------------------------------

default_name

General flags:
     imin    =       0, nmropt  =       0

Nature and format of input:
     ntx     =       7, irest   =       1, ntrx    =       1

Nature and format of output:
     ntxo    =       2, ntpr    =     500, ntrx    =       1, ntwr    =     500
     iwrap   =       0, ntwx    =     500, ntwv    =       0, ntwe    =       0
     ioutfm  =       1, ntwprt  =       0, idecomp =       0, rbornstat=      0

Potential function:
     ntf     =       2, ntb     =       1, igb     =       0, nsnb    =      25
     ipol    =       0, gbsa    =       0, iesp    =       0
     dielc   =   1.00000, cut     =   9.00000, intdiel =   1.00000

Frozen or restrained atoms:
     ibelly  =       0, ntr     =       1
     restraint_wt =   0.50000

Molecular dynamics:
     nstlim  =     10000, nscm    =         0, nrespa  =         1
     t       =   0.00000, dt      =   0.00200, vlimit  =  -1.00000

Berendsen (weak-coupling) temperature regulation:
     temp0   = 300.00000, tempi   = 300.00000, tautp   =   1.00000

SHAKE:
     ntc     =       2, jfastw  =       0
     tol     =   0.00001

Ewald parameters:
     verbose =       0, ew_type =       0, nbflag  =       1, use_pme =       1
     vdwmeth =       1, eedmeth =       1, netfrc  =       1
     Box X =   71.492   Box Y =   81.041   Box Z =   87.051
     Alpha =   90.000   Beta  =   90.000   Gamma =   90.000
     NFFT1 =   72       NFFT2 =   84       NFFT3 =   96
     Cutoff=    9.000   Tol   =0.100E-04
     Ewald Coefficient =  0.30768
     Interpolation order =    4

    LOADING THE CONSTRAINED ATOMS AS GROUPS

   5.  REFERENCE ATOM COORDINATES

  default_name
     Mask :1-226@CA; matches   225 atoms

--------------------------------------------------------------------------------
   3.  ATOMIC COORDINATES AND VELOCITIES
--------------------------------------------------------------------------------

default_name
 begin time read from input coords =    60.000 ps

 Number of triangulated 3-point waters found:    12477

     Sum of charges from parm topology file =  -0.00000310
     Forcing neutrality...

--------------------------------------------------------------------------------
   4.  RESULTS
 NSTEP =      500   TIME(PS) =      61.000  TEMP(K) =   300.73  PRESS =     0.0
 Etot   =    -98289.8422  EKtot   =     25056.3066  EPtot      =   -123346.1489
 BOND   =       711.1433  ANGLE   =      1835.6935  DIHED      =      2870.7321
 1-4 NB =       795.5498  1-4 EEL =     10642.4968  VDWAALS    =     15268.3432
 EELEC  =   -155497.8824  EHBOND  =         0.0000  RESTRAINT  =        27.7748
 EAMBER (non-restraint)  =   -123373.9237
 ------------------------------------------------------------------------------

      A V E R A G E S   O V E R      20 S T E P S

 NSTEP =    10000   TIME(PS) =      80.000  TEMP(K) =   300.27  PRESS =     0.0
 Etot   =    -98212.5895  EKtot   =     25017.8635  EPtot      =   -123230.4530
 BOND   =       675.5209  ANGLE   =      1873.8100  DIHED      =      2885.0331
 1-4 NB =       806.4938  1-4 EEL =     10613.5872  VDWAALS    =     15240.0557
 EELEC  =   -155349.4635  EHBOND  =         0.0000  RESTRAINT  =        24.5098
 EAMBER (non-restraint)  =   -123254.9628
 ------------------------------------------------------------------------------

      R M S  F L U C T U A T I O N S

 NSTEP =    10000   TIME(PS) =      80.000  TEMP(K) =     0.93  PRESS =     0.0
 Etot   =        54.0953  EKtot   =        77.2361  EPtot      =       115.1225
 BOND   =        21.8487  ANGLE   =        36.8287  DIHED      =        17.2881
 1-4 NB =        12.0007  1-4 EEL =        31.0469  VDWAALS    =       121.3694
 EELEC  =       193.6993  EHBOND  =         0.0000  RESTRAINT  =         2.4405
 EAMBER (non-restraint)  =       112.6820
 ------------------------------------------------------------------------------
