-------------------------------------------------------
          Amber 24 PMEMD                              2024
          -------------------------------------------------------

  [-O]verwriting output

File Assignments:

 Here is the input file:

md 5 ns temp = 300 P=cte (ntb=2,ntp=1) No restraints
&cntrl
 nstlim = 15000000, dt = 0.002,
 ntx = 5, irest = 1, cut = 9.0, ioutfm = 1,
 ntpr = 50000, ntwr = 50000, ntwx = 50000,
 iwrap = 1,
 tempi = 300., temp0 = 300.,
 ntt = 1,
 ntb = 2, ntp = 1,
 ntc = 2, ntf = 2,
 ntr = 0,
&end

Note: ig = -1. Setting random seed to   412544 based on wallclock time in
      microseconds.

--------------------------------------------------------------------------------
   1.  RESOURCE   USE:
--------------------------------------------------------------------------------

 getting box info from netcdf restart file
 NATOM  =   41017 NTYPES =      16 NBONH =   39196 MBONA  =    1859
 NTHETH =    4031 MTHETA =    2515 NPHIH =    8177 MPHIA  =    7897
 NHPARM =       0 NPARM  =       0 NNB   =   69708 NRES   =   12709
 NBONA  =    1859 NTHETA =    2515 NPHIA =    7897 NUMBND =      79
 NUMANG =     183 NPTRA  =     201 NATYP =      39 NPHB   =       0
 IFBOX  =       1 NMXRS  =      37 IFCAP =       0 NEXTRA =       0
 NCOPY  =       0

     BOX TYPE: RECTILINEAR

--------------------------------------------------------------------------------
   2.  CONTROL  DATA  FOR  THE  RUN
--------------------------------------------------------------------------------

default_name

General flags:
     imin    =       0, nmropt  =       0

Nature and format of input:
     ntx     =       5, irest   =       1, ntrx    =       1

Nature and format of output:
     ntxo    =       2, ntpr    =   50000, ntrx    =       1, ntwr    =   50000
     iwrap   =       1, ntwx    =   50000, ntwv    =       0, ntwe    =       0
     ioutfm  =       1, ntwprt  =       0, idecomp =       0, rbornstat=      0

Potential function:
     ntf     =       2, ntb     =       2, igb     =       0, nsnb    =      25
     ipol    =       0, gbsa    =       0, iesp    =       0
     dielc   =   1.00000, cut     =   9.00000, intdiel =   1.00000

Frozen or restrained atoms:
     ibelly  =       0, ntr     =       0

Molecular dynamics:
     nstlim  =  15000000, nscm    =      1000, nrespa  =         1
     t       =   0.00000, dt      =   0.00200, vlimit  =  -1.00000

Berendsen (weak-coupling) temperature regulation:
     temp0   = 300.00000, tempi   = 300.00000, tautp   =   1.00000

Pressure regulation:
     ntp     =       1
     pres0   =   1.00000, comp    =  44.60000, taup    =   1.00000

SHAKE:
     ntc     =       2, jfastw  =       0
     tol     =   0.00001

Ewald parameters:
     verbose =       0, ew_type =       0, nbflag  =       1, use_pme =       1
     vdwmeth =       1, eedmeth =       1, netfrc  =       1
     Box X =   66.740   Box Y =   75.654   Box Z =   81.265
     Alpha =   90.000   Beta  =   90.000   Gamma =   90.000
     NFFT1 =   64       NFFT2 =   80       NFFT3 =   84
     Cutoff=    9.000   Tol   =0.100E-04
     Ewald Coefficient =  0.30768
     Interpolation order =    4

--------------------------------------------------------------------------------
   3.  ATOMIC COORDINATES AND VELOCITIES
--------------------------------------------------------------------------------

default_name
 begin time read from input coords =240110.000 ps

 Number of triangulated 3-point waters found:    12477

     Sum of charges from parm topology file =  -0.00000310
     Forcing neutrality...

--------------------------------------------------------------------------------
   4.  RESULTS
 NSTEP =    50000   TIME(PS) =  240210.000  TEMP(K) =   299.53  PRESS =  -101.1
 Etot   =   -100733.3645  EKtot   =     24955.1953  EPtot      =   -125688.5598
 BOND   =       675.4365  ANGLE   =      1861.7438  DIHED      =      2810.7311
 1-4 NB =       804.2074  1-4 EEL =     10461.3934  VDWAALS    =     15481.0899
 EELEC  =   -157783.1618  EHBOND  =         0.0000  RESTRAINT  =         0.0000
 EKCMT  =     11271.4441  VIRIAL  =     12166.3962  VOLUME     =    409901.8456
                                                    Density    =         1.0153
 ------------------------------------------------------------------------------

      A V E R A G E S   O V E R     300 S T E P S

 NSTEP = 15000000   TIME(PS) =  270110.000  TEMP(K) =   299.88  PRESS =    11.5
 Etot   =   -100715.0550  EKtot   =     24984.6803  EPtot      =   -125699.7353
 BOND   =       675.9179  ANGLE   =      1879.4354  DIHED      =      2825.4995
 1-4 NB =       805.8864  1-4 EEL =     10534.3021  VDWAALS    =     15602.6359
 EELEC  =   -158023.4124  EHBOND  =         0.0000  RESTRAINT  =         0.0000
 EKCMT  =     11226.6914  VIRIAL  =     11124.7034  VOLUME     =    410340.2332
                                                    Density    =         1.0142
 ------------------------------------------------------------------------------

      R M S  F L U C T U A T I O N S

 NSTEP = 15000000   TIME(PS) =  270110.000  TEMP(K) =     1.12  PRESS =   113.3
 Etot   =        46.6055  EKtot   =        92.9059  EPtot      =       102.3883
 BOND   =        22.5786  ANGLE   =        31.0587  DIHED      =        20.6001
 1-4 NB =        12.8117  1-4 EEL =        41.5484  VDWAALS    =       149.1172
 EELEC  =       200.4163  EHBOND  =         0.0000  RESTRAINT  =         0.0000
 EKCMT  =        71.3691  VIRIAL  =       998.2813  VOLUME     =       524.7775
                                                    Density    =         0.0013
 ------------------------------------------------------------------------------
