-------------------------------------------------------
          Amber 24 PMEMD                              2024
          -------------------------------------------------------

  [-O]verwriting output

File Assignments:

 Here is the input file:

md 5 ns temp = 300 P=cte (ntb=2,ntp=1) No restraints
&cntrl
 nstlim = 15000000, dt = 0.002,
 ntx = 5, irest = 1, cut = 9.0, ioutfm = 1,
 ntpr = 50000, ntwr = 50000, ntwx = 50000,
 iwrap = 1,
 tempi = 300., temp0 = 300.,
 ntt = 1,
 ntb = 2, ntp = 1,
 ntc = 2, ntf = 2,
 ntr = 0,
&end

Note: ig = -1. Setting random seed to   445015 based on wallclock time in
      microseconds.

--------------------------------------------------------------------------------
   1.  RESOURCE   USE:
--------------------------------------------------------------------------------

 getting box info from netcdf restart file
 NATOM  =   41017 NTYPES =      16 NBONH =   39196 MBONA  =    1859
 NTHETH =    4031 MTHETA =    2515 NPHIH =    8177 MPHIA  =    7897
 NHPARM =       0 NPARM  =       0 NNB   =   69708 NRES   =   12709
 NBONA  =    1859 NTHETA =    2515 NPHIA =    7897 NUMBND =      79
 NUMANG =     183 NPTRA  =     201 NATYP =      39 NPHB   =       0
 IFBOX  =       1 NMXRS  =      37 IFCAP =       0 NEXTRA =       0
 NCOPY  =       0

     BOX TYPE: RECTILINEAR

--------------------------------------------------------------------------------
   2.  CONTROL  DATA  FOR  THE  RUN
--------------------------------------------------------------------------------

default_name

General flags:
     imin    =       0, nmropt  =       0

Nature and format of input:
     ntx     =       5, irest   =       1, ntrx    =       1

Nature and format of output:
     ntxo    =       2, ntpr    =   50000, ntrx    =       1, ntwr    =   50000
     iwrap   =       1, ntwx    =   50000, ntwv    =       0, ntwe    =       0
     ioutfm  =       1, ntwprt  =       0, idecomp =       0, rbornstat=      0

Potential function:
     ntf     =       2, ntb     =       2, igb     =       0, nsnb    =      25
     ipol    =       0, gbsa    =       0, iesp    =       0
     dielc   =   1.00000, cut     =   9.00000, intdiel =   1.00000

Frozen or restrained atoms:
     ibelly  =       0, ntr     =       0

Molecular dynamics:
     nstlim  =  15000000, nscm    =      1000, nrespa  =         1
     t       =   0.00000, dt      =   0.00200, vlimit  =  -1.00000

Berendsen (weak-coupling) temperature regulation:
     temp0   = 300.00000, tempi   = 300.00000, tautp   =   1.00000

Pressure regulation:
     ntp     =       1
     pres0   =   1.00000, comp    =  44.60000, taup    =   1.00000

SHAKE:
     ntc     =       2, jfastw  =       0
     tol     =   0.00001

Ewald parameters:
     verbose =       0, ew_type =       0, nbflag  =       1, use_pme =       1
     vdwmeth =       1, eedmeth =       1, netfrc  =       1
     Box X =   66.762   Box Y =   75.680   Box Z =   81.292
     Alpha =   90.000   Beta  =   90.000   Gamma =   90.000
     NFFT1 =   64       NFFT2 =   80       NFFT3 =   84
     Cutoff=    9.000   Tol   =0.100E-04
     Ewald Coefficient =  0.30768
     Interpolation order =    4

--------------------------------------------------------------------------------
   3.  ATOMIC COORDINATES AND VELOCITIES
--------------------------------------------------------------------------------

default_name
 begin time read from input coords = 60110.000 ps

 Number of triangulated 3-point waters found:    12477

     Sum of charges from parm topology file =  -0.00000310
     Forcing neutrality...

--------------------------------------------------------------------------------
   4.  RESULTS
 NSTEP =    50000   TIME(PS) =   60210.000  TEMP(K) =   298.92  PRESS =   104.2
 Etot   =   -100672.5164  EKtot   =     24904.6211  EPtot      =   -125577.1374
 BOND   =       663.6480  ANGLE   =      1897.7420  DIHED      =      2828.8956
 1-4 NB =       802.6941  1-4 EEL =     10525.2861  VDWAALS    =     15673.3435
 EELEC  =   -157968.7466  EHBOND  =         0.0000  RESTRAINT  =         0.0000
 EKCMT  =     11090.8392  VIRIAL  =     10167.9013  VOLUME     =    410204.6286
                                                    Density    =         1.0145
 ------------------------------------------------------------------------------

      A V E R A G E S   O V E R     300 S T E P S

 NSTEP = 15000000   TIME(PS) =   90110.000  TEMP(K) =   299.88  PRESS =    -4.0
 Etot   =   -100698.8534  EKtot   =     24984.6199  EPtot      =   -125683.4733
 BOND   =       675.2531  ANGLE   =      1883.7150  DIHED      =      2826.1142
 1-4 NB =       806.6342  1-4 EEL =     10539.1991  VDWAALS    =     15586.1720
 EELEC  =   -158000.5608  EHBOND  =         0.0000  RESTRAINT  =         0.0000
 EKCMT  =     11232.7757  VIRIAL  =     11267.9130  VOLUME     =    410422.3535
                                                    Density    =         1.0140
 ------------------------------------------------------------------------------

      R M S  F L U C T U A T I O N S

 NSTEP = 15000000   TIME(PS) =   90110.000  TEMP(K) =     1.11  PRESS =   110.6
 Etot   =        45.8007  EKtot   =        92.6910  EPtot      =       102.8107
 BOND   =        21.8538  ANGLE   =        34.0185  DIHED      =        20.3102
 1-4 NB =        12.0068  1-4 EEL =        39.5955  VDWAALS    =       144.9618
 EELEC  =       197.6324  EHBOND  =         0.0000  RESTRAINT  =         0.0000
 EKCMT  =        69.0812  VIRIAL  =       985.6866  VOLUME     =       466.8099
                                                    Density    =         0.0012
 ------------------------------------------------------------------------------
