-------------------------------------------------------
          Amber 24 PMEMD                              2024
          -------------------------------------------------------

  [-O]verwriting output

File Assignments:

 Here is the input file:

md 5 ns temp = 300 P=cte (ntb=2,ntp=1) No restraints
&cntrl
 nstlim = 15000000, dt = 0.002,
 ntx = 5, irest = 1, cut = 9.0, ioutfm = 1,
 ntpr = 50000, ntwr = 50000, ntwx = 50000,
 iwrap = 1,
 tempi = 300., temp0 = 300.,
 ntt = 1,
 ntb = 2, ntp = 1,
 ntc = 2, ntf = 2,
 ntr = 0,
&end

Note: ig = -1. Setting random seed to   625385 based on wallclock time in
      microseconds.

--------------------------------------------------------------------------------
   1.  RESOURCE   USE:
--------------------------------------------------------------------------------

 getting box info from netcdf restart file
 NATOM  =   41017 NTYPES =      16 NBONH =   39196 MBONA  =    1859
 NTHETH =    4031 MTHETA =    2515 NPHIH =    8177 MPHIA  =    7897
 NHPARM =       0 NPARM  =       0 NNB   =   69708 NRES   =   12709
 NBONA  =    1859 NTHETA =    2515 NPHIA =    7897 NUMBND =      79
 NUMANG =     183 NPTRA  =     201 NATYP =      39 NPHB   =       0
 IFBOX  =       1 NMXRS  =      37 IFCAP =       0 NEXTRA =       0
 NCOPY  =       0

     BOX TYPE: RECTILINEAR

--------------------------------------------------------------------------------
   2.  CONTROL  DATA  FOR  THE  RUN
--------------------------------------------------------------------------------

default_name

General flags:
     imin    =       0, nmropt  =       0

Nature and format of input:
     ntx     =       5, irest   =       1, ntrx    =       1

Nature and format of output:
     ntxo    =       2, ntpr    =   50000, ntrx    =       1, ntwr    =   50000
     iwrap   =       1, ntwx    =   50000, ntwv    =       0, ntwe    =       0
     ioutfm  =       1, ntwprt  =       0, idecomp =       0, rbornstat=      0

Potential function:
     ntf     =       2, ntb     =       2, igb     =       0, nsnb    =      25
     ipol    =       0, gbsa    =       0, iesp    =       0
     dielc   =   1.00000, cut     =   9.00000, intdiel =   1.00000

Frozen or restrained atoms:
     ibelly  =       0, ntr     =       0

Molecular dynamics:
     nstlim  =  15000000, nscm    =      1000, nrespa  =         1
     t       =   0.00000, dt      =   0.00200, vlimit  =  -1.00000

Berendsen (weak-coupling) temperature regulation:
     temp0   = 300.00000, tempi   = 300.00000, tautp   =   1.00000

Pressure regulation:
     ntp     =       1
     pres0   =   1.00000, comp    =  44.60000, taup    =   1.00000

SHAKE:
     ntc     =       2, jfastw  =       0
     tol     =   0.00001

Ewald parameters:
     verbose =       0, ew_type =       0, nbflag  =       1, use_pme =       1
     vdwmeth =       1, eedmeth =       1, netfrc  =       1
     Box X =   66.724   Box Y =   75.636   Box Z =   81.246
     Alpha =   90.000   Beta  =   90.000   Gamma =   90.000
     NFFT1 =   64       NFFT2 =   80       NFFT3 =   84
     Cutoff=    9.000   Tol   =0.100E-04
     Ewald Coefficient =  0.30768
     Interpolation order =    4

--------------------------------------------------------------------------------
   3.  ATOMIC COORDINATES AND VELOCITIES
--------------------------------------------------------------------------------

default_name
 begin time read from input coords = 30110.000 ps

 Number of triangulated 3-point waters found:    12477

     Sum of charges from parm topology file =  -0.00000310
     Forcing neutrality...

--------------------------------------------------------------------------------
   4.  RESULTS
 NSTEP =    50000   TIME(PS) =   30210.000  TEMP(K) =   300.89  PRESS =  -100.0
 Etot   =   -100810.7762  EKtot   =     25069.0645  EPtot      =   -125879.8407
 BOND   =       692.5257  ANGLE   =      1910.0854  DIHED      =      2865.8703
 1-4 NB =       812.8017  1-4 EEL =     10529.3853  VDWAALS    =     15485.6266
 EELEC  =   -158176.1356  EHBOND  =         0.0000  RESTRAINT  =         0.0000
 EKCMT  =     11209.4705  VIRIAL  =     12093.5157  VOLUME     =    409258.2782
                                                    Density    =         1.0169
 ------------------------------------------------------------------------------

      A V E R A G E S   O V E R     300 S T E P S

 NSTEP = 15000000   TIME(PS) =   60110.000  TEMP(K) =   299.93  PRESS =     9.9
 Etot   =   -100712.7955  EKtot   =     24988.5966  EPtot      =   -125701.3921
 BOND   =       676.4014  ANGLE   =      1875.9770  DIHED      =      2824.5886
 1-4 NB =       807.2263  1-4 EEL =     10538.1924  VDWAALS    =     15610.9264
 EELEC  =   -158034.7041  EHBOND  =         0.0000  RESTRAINT  =         0.0000
 EKCMT  =     11234.5370  VIRIAL  =     11146.5674  VOLUME     =    410358.0906
                                                    Density    =         1.0142
 ------------------------------------------------------------------------------

      R M S  F L U C T U A T I O N S

 NSTEP = 15000000   TIME(PS) =   60110.000  TEMP(K) =     1.10  PRESS =   107.5
 Etot   =        49.6238  EKtot   =        91.8963  EPtot      =       105.4428
 BOND   =        22.1260  ANGLE   =        31.5375  DIHED      =        20.2388
 1-4 NB =        11.9519  1-4 EEL =        41.3286  VDWAALS    =       138.2112
 EELEC  =       196.5075  EHBOND  =         0.0000  RESTRAINT  =         0.0000
 EKCMT  =        71.6464  VIRIAL  =       955.5646  VOLUME     =       476.1037
                                                    Density    =         0.0012
 ------------------------------------------------------------------------------
