-------------------------------------------------------
          Amber 24 PMEMD                              2024
          -------------------------------------------------------

  [-O]verwriting output

File Assignments:

 Here is the input file:

md 5 ns temp = 300 P=cte (ntb=2,ntp=1) No restraints
&cntrl
 nstlim = 15000000, dt = 0.002,
 ntx = 5, irest = 1, cut = 9.0, ioutfm = 1,
 ntpr = 50000, ntwr = 50000, ntwx = 50000,
 iwrap = 1,
 tempi = 300., temp0 = 300.,
 ntt = 1,
 ntb = 2, ntp = 1,
 ntc = 2, ntf = 2,
 ntr = 0,
&end

Note: ig = -1. Setting random seed to   750252 based on wallclock time in
      microseconds.

--------------------------------------------------------------------------------
   1.  RESOURCE   USE:
--------------------------------------------------------------------------------

 getting box info from netcdf restart file
 NATOM  =   41017 NTYPES =      16 NBONH =   39196 MBONA  =    1859
 NTHETH =    4031 MTHETA =    2515 NPHIH =    8177 MPHIA  =    7897
 NHPARM =       0 NPARM  =       0 NNB   =   69708 NRES   =   12709
 NBONA  =    1859 NTHETA =    2515 NPHIA =    7897 NUMBND =      79
 NUMANG =     183 NPTRA  =     201 NATYP =      39 NPHB   =       0
 IFBOX  =       1 NMXRS  =      37 IFCAP =       0 NEXTRA =       0
 NCOPY  =       0

     BOX TYPE: RECTILINEAR

--------------------------------------------------------------------------------
   2.  CONTROL  DATA  FOR  THE  RUN
--------------------------------------------------------------------------------

default_name

General flags:
     imin    =       0, nmropt  =       0

Nature and format of input:
     ntx     =       5, irest   =       1, ntrx    =       1

Nature and format of output:
     ntxo    =       2, ntpr    =   50000, ntrx    =       1, ntwr    =   50000
     iwrap   =       1, ntwx    =   50000, ntwv    =       0, ntwe    =       0
     ioutfm  =       1, ntwprt  =       0, idecomp =       0, rbornstat=      0

Potential function:
     ntf     =       2, ntb     =       2, igb     =       0, nsnb    =      25
     ipol    =       0, gbsa    =       0, iesp    =       0
     dielc   =   1.00000, cut     =   9.00000, intdiel =   1.00000

Frozen or restrained atoms:
     ibelly  =       0, ntr     =       0

Molecular dynamics:
     nstlim  =  15000000, nscm    =      1000, nrespa  =         1
     t       =   0.00000, dt      =   0.00200, vlimit  =  -1.00000

Berendsen (weak-coupling) temperature regulation:
     temp0   = 300.00000, tempi   = 300.00000, tautp   =   1.00000

Pressure regulation:
     ntp     =       1
     pres0   =   1.00000, comp    =  44.60000, taup    =   1.00000

SHAKE:
     ntc     =       2, jfastw  =       0
     tol     =   0.00001

Ewald parameters:
     verbose =       0, ew_type =       0, nbflag  =       1, use_pme =       1
     vdwmeth =       1, eedmeth =       1, netfrc  =       1
     Box X =   66.747   Box Y =   75.662   Box Z =   81.273
     Alpha =   90.000   Beta  =   90.000   Gamma =   90.000
     NFFT1 =   64       NFFT2 =   80       NFFT3 =   84
     Cutoff=    9.000   Tol   =0.100E-04
     Ewald Coefficient =  0.30768
     Interpolation order =    4

--------------------------------------------------------------------------------
   3.  ATOMIC COORDINATES AND VELOCITIES
--------------------------------------------------------------------------------

default_name
 begin time read from input coords =180110.000 ps

 Number of triangulated 3-point waters found:    12477

     Sum of charges from parm topology file =  -0.00000310
     Forcing neutrality...

--------------------------------------------------------------------------------
   4.  RESULTS
 NSTEP =    50000   TIME(PS) =  180210.000  TEMP(K) =   299.65  PRESS =   -33.5
 Etot   =   -100741.4722  EKtot   =     24965.3477  EPtot      =   -125706.8198
 BOND   =       688.6211  ANGLE   =      1905.1356  DIHED      =      2813.5348
 1-4 NB =       795.7274  1-4 EEL =     10440.6476  VDWAALS    =     15640.6153
 EELEC  =   -157991.1017  EHBOND  =         0.0000  RESTRAINT  =         0.0000
 EKCMT  =     11242.1889  VIRIAL  =     11539.1200  VOLUME     =    410330.8889
                                                    Density    =         1.0142
 ------------------------------------------------------------------------------

      A V E R A G E S   O V E R     300 S T E P S

 NSTEP = 15000000   TIME(PS) =  210110.000  TEMP(K) =   300.00  PRESS =     6.3
 Etot   =   -100719.6436  EKtot   =     24994.3767  EPtot      =   -125714.0202
 BOND   =       672.9393  ANGLE   =      1877.5290  DIHED      =      2823.4087
 1-4 NB =       808.5999  1-4 EEL =     10535.0667  VDWAALS    =     15599.8675
 EELEC  =   -158031.4314  EHBOND  =         0.0000  RESTRAINT  =         0.0000
 EKCMT  =     11237.1563  VIRIAL  =     11181.7750  VOLUME     =    410294.0099
                                                    Density    =         1.0143
 ------------------------------------------------------------------------------

      R M S  F L U C T U A T I O N S

 NSTEP = 15000000   TIME(PS) =  210110.000  TEMP(K) =     1.10  PRESS =   115.8
 Etot   =        41.4831  EKtot   =        91.9588  EPtot      =       102.3245
 BOND   =        21.0821  ANGLE   =        31.5282  DIHED      =        19.3023
 1-4 NB =        11.9126  1-4 EEL =        45.6219  VDWAALS    =       158.1583
 EELEC  =       199.6016  EHBOND  =         0.0000  RESTRAINT  =         0.0000
 EKCMT  =        74.8782  VIRIAL  =      1032.9277  VOLUME     =       463.0360
                                                    Density    =         0.0011
 ------------------------------------------------------------------------------
