-------------------------------------------------------
          Amber 24 PMEMD                              2024
          -------------------------------------------------------

  [-O]verwriting output

File Assignments:

 Here is the input file:

md 5 ns temp = 300 P=cte (ntb=2,ntp=1) No restraints
&cntrl
 nstlim = 15000000, dt = 0.002,
 ntx = 5, irest = 1, cut = 9.0, ioutfm = 1,
 ntpr = 50000, ntwr = 50000, ntwx = 50000,
 iwrap = 1,
 tempi = 300., temp0 = 300.,
 ntt = 1,
 ntb = 2, ntp = 1,
 ntc = 2, ntf = 2,
 ntr = 0,
&end

Note: ig = -1. Setting random seed to   983111 based on wallclock time in
      microseconds.

--------------------------------------------------------------------------------
   1.  RESOURCE   USE:
--------------------------------------------------------------------------------

 getting box info from netcdf restart file
 NATOM  =   41017 NTYPES =      16 NBONH =   39196 MBONA  =    1859
 NTHETH =    4031 MTHETA =    2515 NPHIH =    8177 MPHIA  =    7897
 NHPARM =       0 NPARM  =       0 NNB   =   69708 NRES   =   12709
 NBONA  =    1859 NTHETA =    2515 NPHIA =    7897 NUMBND =      79
 NUMANG =     183 NPTRA  =     201 NATYP =      39 NPHB   =       0
 IFBOX  =       1 NMXRS  =      37 IFCAP =       0 NEXTRA =       0
 NCOPY  =       0

     BOX TYPE: RECTILINEAR

--------------------------------------------------------------------------------
   2.  CONTROL  DATA  FOR  THE  RUN
--------------------------------------------------------------------------------

default_name

General flags:
     imin    =       0, nmropt  =       0

Nature and format of input:
     ntx     =       5, irest   =       1, ntrx    =       1

Nature and format of output:
     ntxo    =       2, ntpr    =   50000, ntrx    =       1, ntwr    =   50000
     iwrap   =       1, ntwx    =   50000, ntwv    =       0, ntwe    =       0
     ioutfm  =       1, ntwprt  =       0, idecomp =       0, rbornstat=      0

Potential function:
     ntf     =       2, ntb     =       2, igb     =       0, nsnb    =      25
     ipol    =       0, gbsa    =       0, iesp    =       0
     dielc   =   1.00000, cut     =   9.00000, intdiel =   1.00000

Frozen or restrained atoms:
     ibelly  =       0, ntr     =       0

Molecular dynamics:
     nstlim  =  15000000, nscm    =      1000, nrespa  =         1
     t       =   0.00000, dt      =   0.00200, vlimit  =  -1.00000

Berendsen (weak-coupling) temperature regulation:
     temp0   = 300.00000, tempi   = 300.00000, tautp   =   1.00000

Pressure regulation:
     ntp     =       1
     pres0   =   1.00000, comp    =  44.60000, taup    =   1.00000

SHAKE:
     ntc     =       2, jfastw  =       0
     tol     =   0.00001

Ewald parameters:
     verbose =       0, ew_type =       0, nbflag  =       1, use_pme =       1
     vdwmeth =       1, eedmeth =       1, netfrc  =       1
     Box X =   66.770   Box Y =   75.688   Box Z =   81.301
     Alpha =   90.000   Beta  =   90.000   Gamma =   90.000
     NFFT1 =   64       NFFT2 =   80       NFFT3 =   84
     Cutoff=    9.000   Tol   =0.100E-04
     Ewald Coefficient =  0.30768
     Interpolation order =    4

--------------------------------------------------------------------------------
   3.  ATOMIC COORDINATES AND VELOCITIES
--------------------------------------------------------------------------------

default_name
 begin time read from input coords =150110.000 ps

 Number of triangulated 3-point waters found:    12477

     Sum of charges from parm topology file =  -0.00000310
     Forcing neutrality...

--------------------------------------------------------------------------------
   4.  RESULTS
 NSTEP =    50000   TIME(PS) =  150210.000  TEMP(K) =   300.82  PRESS =  -162.5
 Etot   =   -100705.7943  EKtot   =     25062.9336  EPtot      =   -125768.7279
 BOND   =       685.8370  ANGLE   =      1864.3956  DIHED      =      2816.8203
 1-4 NB =       814.4181  1-4 EEL =     10560.7349  VDWAALS    =     15614.4013
 EELEC  =   -158125.3352  EHBOND  =         0.0000  RESTRAINT  =         0.0000
 EKCMT  =     11246.3450  VIRIAL  =     12687.2282  VOLUME     =    410726.3195
                                                    Density    =         1.0133
 ------------------------------------------------------------------------------

      A V E R A G E S   O V E R     300 S T E P S

 NSTEP = 15000000   TIME(PS) =  180110.000  TEMP(K) =   299.91  PRESS =    -4.9
 Etot   =   -100720.3808  EKtot   =     24986.7781  EPtot      =   -125707.1589
 BOND   =       672.0828  ANGLE   =      1878.8649  DIHED      =      2827.7743
 1-4 NB =       807.6035  1-4 EEL =     10558.1304  VDWAALS    =     15586.5332
 EELEC  =   -158038.1480  EHBOND  =         0.0000  RESTRAINT  =         0.0000
 EKCMT  =     11238.7140  VIRIAL  =     11282.2271  VOLUME     =    410384.8127
                                                    Density    =         1.0141
 ------------------------------------------------------------------------------

      R M S  F L U C T U A T I O N S

 NSTEP = 15000000   TIME(PS) =  180110.000  TEMP(K) =     1.19  PRESS =   116.6
 Etot   =        46.3466  EKtot   =        99.5469  EPtot      =       112.5942
 BOND   =        20.9017  ANGLE   =        33.0017  DIHED      =        20.4516
 1-4 NB =        11.7559  1-4 EEL =        43.1029  VDWAALS    =       148.2206
 EELEC  =       200.3021  EHBOND  =         0.0000  RESTRAINT  =         0.0000
 EKCMT  =        70.8063  VIRIAL  =      1038.9978  VOLUME     =       505.0926
                                                    Density    =         0.0012
 ------------------------------------------------------------------------------
