-------------------------------------------------------
          Amber 24 PMEMD                              2024
          -------------------------------------------------------

  [-O]verwriting output

File Assignments:

 Here is the input file:

eq4 temp = 300, k = 2.5 V=cte (ntb=1)
&cntrl
 nstlim = 10000, dt = 0.002,
 ntx = 7, irest = 1, iwrap=0, cut= 9.0, ioutfm = 1,
 ntpr = 500, ntwr = 500, ntwx = 500,
 tempi = 300., temp0 = 300.,
 ntt = 1,
 ntb = 1,
 ntc = 2, ntf = 2,
 ntr = 1,
 restraint_wt = 0.25, restraintmask = ":1-226@CA"
&end

Note: ig = -1. Setting random seed to   593100 based on wallclock time in
      microseconds.

--------------------------------------------------------------------------------
   1.  RESOURCE   USE:
--------------------------------------------------------------------------------

 getting box info from netcdf restart file
 NATOM  =   41017 NTYPES =      16 NBONH =   39196 MBONA  =    1859
 NTHETH =    4031 MTHETA =    2515 NPHIH =    8177 MPHIA  =    7897
 NHPARM =       0 NPARM  =       0 NNB   =   69708 NRES   =   12709
 NBONA  =    1859 NTHETA =    2515 NPHIA =    7897 NUMBND =      79
 NUMANG =     183 NPTRA  =     201 NATYP =      39 NPHB   =       0
 IFBOX  =       1 NMXRS  =      37 IFCAP =       0 NEXTRA =       0
 NCOPY  =       0

     BOX TYPE: RECTILINEAR

--------------------------------------------------------------------------------
   2.  CONTROL  DATA  FOR  THE  RUN
--------------------------------------------------------------------------------

default_name

General flags:
     imin    =       0, nmropt  =       0

Nature and format of input:
     ntx     =       7, irest   =       1, ntrx    =       1

Nature and format of output:
     ntxo    =       2, ntpr    =     500, ntrx    =       1, ntwr    =     500
     iwrap   =       0, ntwx    =     500, ntwv    =       0, ntwe    =       0
     ioutfm  =       1, ntwprt  =       0, idecomp =       0, rbornstat=      0

Potential function:
     ntf     =       2, ntb     =       1, igb     =       0, nsnb    =      25
     ipol    =       0, gbsa    =       0, iesp    =       0
     dielc   =   1.00000, cut     =   9.00000, intdiel =   1.00000

Frozen or restrained atoms:
     ibelly  =       0, ntr     =       1
     restraint_wt =   0.25000

Molecular dynamics:
     nstlim  =     10000, nscm    =         0, nrespa  =         1
     t       =   0.00000, dt      =   0.00200, vlimit  =  -1.00000

Berendsen (weak-coupling) temperature regulation:
     temp0   = 300.00000, tempi   = 300.00000, tautp   =   1.00000

SHAKE:
     ntc     =       2, jfastw  =       0
     tol     =   0.00001

Ewald parameters:
     verbose =       0, ew_type =       0, nbflag  =       1, use_pme =       1
     vdwmeth =       1, eedmeth =       1, netfrc  =       1
     Box X =   71.492   Box Y =   81.041   Box Z =   87.051
     Alpha =   90.000   Beta  =   90.000   Gamma =   90.000
     NFFT1 =   72       NFFT2 =   84       NFFT3 =   96
     Cutoff=    9.000   Tol   =0.100E-04
     Ewald Coefficient =  0.30768
     Interpolation order =    4

    LOADING THE CONSTRAINED ATOMS AS GROUPS

   5.  REFERENCE ATOM COORDINATES

  default_name
     Mask :1-226@CA; matches   225 atoms

--------------------------------------------------------------------------------
   3.  ATOMIC COORDINATES AND VELOCITIES
--------------------------------------------------------------------------------

default_name
 begin time read from input coords =    80.000 ps

 Number of triangulated 3-point waters found:    12477

     Sum of charges from parm topology file =  -0.00000310
     Forcing neutrality...

--------------------------------------------------------------------------------
   4.  RESULTS
 NSTEP =      500   TIME(PS) =      81.000  TEMP(K) =   301.44  PRESS =     0.0
 Etot   =    -98343.3708  EKtot   =     25115.0020  EPtot      =   -123458.3728
 BOND   =       685.0201  ANGLE   =      1878.1365  DIHED      =      2887.8687
 1-4 NB =       808.4876  1-4 EEL =     10612.7356  VDWAALS    =     15009.9951
 EELEC  =   -155357.4927  EHBOND  =         0.0000  RESTRAINT  =        16.8764
 EAMBER (non-restraint)  =   -123475.2492
 ------------------------------------------------------------------------------

      A V E R A G E S   O V E R      20 S T E P S

 NSTEP =    10000   TIME(PS) =     100.000  TEMP(K) =   300.13  PRESS =     0.0
 Etot   =    -98295.8569  EKtot   =     25006.1312  EPtot      =   -123301.9881
 BOND   =       672.1506  ANGLE   =      1887.1126  DIHED      =      2887.3284
 1-4 NB =       803.9951  1-4 EEL =     10609.2528  VDWAALS    =     15332.0414
 EELEC  =   -155512.1290  EHBOND  =         0.0000  RESTRAINT  =        18.2601
 EAMBER (non-restraint)  =   -123320.2482
 ------------------------------------------------------------------------------

      R M S  F L U C T U A T I O N S

 NSTEP =    10000   TIME(PS) =     100.000  TEMP(K) =     1.14  PRESS =     0.0
 Etot   =        45.6822  EKtot   =        94.7183  EPtot      =       103.8122
 BOND   =        21.2993  ANGLE   =        32.4868  DIHED      =        15.3154
 1-4 NB =        14.1931  1-4 EEL =        30.4446  VDWAALS    =       186.7227
 EELEC  =       203.9213  EHBOND  =         0.0000  RESTRAINT  =         1.5778
 EAMBER (non-restraint)  =       102.2344
 ------------------------------------------------------------------------------
