-------------------------------------------------------
          Amber 24 PMEMD                              2024
          -------------------------------------------------------

  [-O]verwriting output

File Assignments:

 Here is the input file:

md 5 ns temp = 300 P=cte (ntb=2,ntp=1) No restraints
&cntrl
 nstlim = 15000000, dt = 0.002,
 ntx = 5, irest = 1, cut = 9.0, ioutfm = 1,
 ntpr = 50000, ntwr = 50000, ntwx = 50000,
 iwrap = 1,
 tempi = 300., temp0 = 300.,
 ntt = 1,
 ntb = 2, ntp = 1,
 ntc = 2, ntf = 2,
 ntr = 0,
&end

Note: ig = -1. Setting random seed to   873144 based on wallclock time in
      microseconds.

--------------------------------------------------------------------------------
   1.  RESOURCE   USE:
--------------------------------------------------------------------------------

 getting box info from netcdf restart file
 NATOM  =   41017 NTYPES =      16 NBONH =   39196 MBONA  =    1859
 NTHETH =    4031 MTHETA =    2515 NPHIH =    8177 MPHIA  =    7897
 NHPARM =       0 NPARM  =       0 NNB   =   69708 NRES   =   12709
 NBONA  =    1859 NTHETA =    2515 NPHIA =    7897 NUMBND =      79
 NUMANG =     183 NPTRA  =     201 NATYP =      39 NPHB   =       0
 IFBOX  =       1 NMXRS  =      37 IFCAP =       0 NEXTRA =       0
 NCOPY  =       0

     BOX TYPE: RECTILINEAR

--------------------------------------------------------------------------------
   2.  CONTROL  DATA  FOR  THE  RUN
--------------------------------------------------------------------------------

default_name

General flags:
     imin    =       0, nmropt  =       0

Nature and format of input:
     ntx     =       5, irest   =       1, ntrx    =       1

Nature and format of output:
     ntxo    =       2, ntpr    =   50000, ntrx    =       1, ntwr    =   50000
     iwrap   =       1, ntwx    =   50000, ntwv    =       0, ntwe    =       0
     ioutfm  =       1, ntwprt  =       0, idecomp =       0, rbornstat=      0

Potential function:
     ntf     =       2, ntb     =       2, igb     =       0, nsnb    =      25
     ipol    =       0, gbsa    =       0, iesp    =       0
     dielc   =   1.00000, cut     =   9.00000, intdiel =   1.00000

Frozen or restrained atoms:
     ibelly  =       0, ntr     =       0

Molecular dynamics:
     nstlim  =  15000000, nscm    =      1000, nrespa  =         1
     t       =   0.00000, dt      =   0.00200, vlimit  =  -1.00000

Berendsen (weak-coupling) temperature regulation:
     temp0   = 300.00000, tempi   = 300.00000, tautp   =   1.00000

Pressure regulation:
     ntp     =       1
     pres0   =   1.00000, comp    =  44.60000, taup    =   1.00000

SHAKE:
     ntc     =       2, jfastw  =       0
     tol     =   0.00001

Ewald parameters:
     verbose =       0, ew_type =       0, nbflag  =       1, use_pme =       1
     vdwmeth =       1, eedmeth =       1, netfrc  =       1
     Box X =   66.770   Box Y =   75.689   Box Z =   81.302
     Alpha =   90.000   Beta  =   90.000   Gamma =   90.000
     NFFT1 =   64       NFFT2 =   80       NFFT3 =   84
     Cutoff=    9.000   Tol   =0.100E-04
     Ewald Coefficient =  0.30768
     Interpolation order =    4

--------------------------------------------------------------------------------
   3.  ATOMIC COORDINATES AND VELOCITIES
--------------------------------------------------------------------------------

default_name
 begin time read from input coords = 90110.000 ps

 Number of triangulated 3-point waters found:    12477

     Sum of charges from parm topology file =  -0.00000310
     Forcing neutrality...

--------------------------------------------------------------------------------
   4.  RESULTS
 NSTEP =    50000   TIME(PS) =   90210.000  TEMP(K) =   300.87  PRESS =  -191.1
 Etot   =   -100696.0050  EKtot   =     25067.1934  EPtot      =   -125763.1984
 BOND   =       695.5272  ANGLE   =      1859.8535  DIHED      =      2781.5531
 1-4 NB =       798.7179  1-4 EEL =     10446.7737  VDWAALS    =     15571.7247
 EELEC  =   -157917.3486  EHBOND  =         0.0000  RESTRAINT  =         0.0000
 EKCMT  =     11347.0713  VIRIAL  =     13041.1131  VOLUME     =    410598.6026
                                                    Density    =         1.0136
 ------------------------------------------------------------------------------

      A V E R A G E S   O V E R     300 S T E P S

 NSTEP = 15000000   TIME(PS) =  120110.000  TEMP(K) =   299.93  PRESS =    -8.7
 Etot   =   -100715.0245  EKtot   =     24988.4131  EPtot      =   -125703.4377
 BOND   =       675.1381  ANGLE   =      1875.6314  DIHED      =      2829.5031
 1-4 NB =       808.0583  1-4 EEL =     10541.3738  VDWAALS    =     15580.1763
 EELEC  =   -158013.3187  EHBOND  =         0.0000  RESTRAINT  =         0.0000
 EKCMT  =     11238.0935  VIRIAL  =     11314.9008  VOLUME     =    410303.8731
                                                    Density    =         1.0143
 ------------------------------------------------------------------------------

      R M S  F L U C T U A T I O N S

 NSTEP = 15000000   TIME(PS) =  120110.000  TEMP(K) =     1.14  PRESS =   121.0
 Etot   =        45.7224  EKtot   =        95.2027  EPtot      =       106.9166
 BOND   =        21.4940  ANGLE   =        30.3299  DIHED      =        19.9016
 1-4 NB =        11.6439  1-4 EEL =        41.5697  VDWAALS    =       147.8645
 EELEC  =       196.3135  EHBOND  =         0.0000  RESTRAINT  =         0.0000
 EKCMT  =        76.0534  VIRIAL  =      1077.9069  VOLUME     =       464.0430
                                                    Density    =         0.0011
 ------------------------------------------------------------------------------
