-------------------------------------------------------
          Amber 24 PMEMD                              2024
          -------------------------------------------------------

  [-O]verwriting output

File Assignments:

 Here is the input file:

md 5 ns temp = 300 P=cte (ntb=2,ntp=1) No restraints
&cntrl
 nstlim = 15000000, dt = 0.002,
 ntx = 5, irest = 1, cut = 9.0, ioutfm = 1,
 ntpr = 50000, ntwr = 50000, ntwx = 50000,
 iwrap = 1,
 tempi = 300., temp0 = 300.,
 ntt = 1,
 ntb = 2, ntp = 1,
 ntc = 2, ntf = 2,
 ntr = 0,
&end

Note: ig = -1. Setting random seed to   246328 based on wallclock time in
      microseconds.

--------------------------------------------------------------------------------
   1.  RESOURCE   USE:
--------------------------------------------------------------------------------

 getting box info from netcdf restart file
 NATOM  =   41017 NTYPES =      16 NBONH =   39196 MBONA  =    1859
 NTHETH =    4031 MTHETA =    2515 NPHIH =    8177 MPHIA  =    7897
 NHPARM =       0 NPARM  =       0 NNB   =   69708 NRES   =   12709
 NBONA  =    1859 NTHETA =    2515 NPHIA =    7897 NUMBND =      79
 NUMANG =     183 NPTRA  =     201 NATYP =      39 NPHB   =       0
 IFBOX  =       1 NMXRS  =      37 IFCAP =       0 NEXTRA =       0
 NCOPY  =       0

     BOX TYPE: RECTILINEAR

--------------------------------------------------------------------------------
   2.  CONTROL  DATA  FOR  THE  RUN
--------------------------------------------------------------------------------

default_name

General flags:
     imin    =       0, nmropt  =       0

Nature and format of input:
     ntx     =       5, irest   =       1, ntrx    =       1

Nature and format of output:
     ntxo    =       2, ntpr    =   50000, ntrx    =       1, ntwr    =   50000
     iwrap   =       1, ntwx    =   50000, ntwv    =       0, ntwe    =       0
     ioutfm  =       1, ntwprt  =       0, idecomp =       0, rbornstat=      0

Potential function:
     ntf     =       2, ntb     =       2, igb     =       0, nsnb    =      25
     ipol    =       0, gbsa    =       0, iesp    =       0
     dielc   =   1.00000, cut     =   9.00000, intdiel =   1.00000

Frozen or restrained atoms:
     ibelly  =       0, ntr     =       0

Molecular dynamics:
     nstlim  =  15000000, nscm    =      1000, nrespa  =         1
     t       =   0.00000, dt      =   0.00200, vlimit  =  -1.00000

Berendsen (weak-coupling) temperature regulation:
     temp0   = 300.00000, tempi   = 300.00000, tautp   =   1.00000

Pressure regulation:
     ntp     =       1
     pres0   =   1.00000, comp    =  44.60000, taup    =   1.00000

SHAKE:
     ntc     =       2, jfastw  =       0
     tol     =   0.00001

Ewald parameters:
     verbose =       0, ew_type =       0, nbflag  =       1, use_pme =       1
     vdwmeth =       1, eedmeth =       1, netfrc  =       1
     Box X =   66.736   Box Y =   75.649   Box Z =   81.259
     Alpha =   90.000   Beta  =   90.000   Gamma =   90.000
     NFFT1 =   64       NFFT2 =   80       NFFT3 =   84
     Cutoff=    9.000   Tol   =0.100E-04
     Ewald Coefficient =  0.30768
     Interpolation order =    4

--------------------------------------------------------------------------------
   3.  ATOMIC COORDINATES AND VELOCITIES
--------------------------------------------------------------------------------

default_name
 begin time read from input coords =210110.000 ps

 Number of triangulated 3-point waters found:    12477

     Sum of charges from parm topology file =  -0.00000310
     Forcing neutrality...

--------------------------------------------------------------------------------
   4.  RESULTS
 NSTEP =    50000   TIME(PS) =  210210.000  TEMP(K) =   299.64  PRESS =   267.7
 Etot   =   -100716.3857  EKtot   =     24964.5176  EPtot      =   -125680.9033
 BOND   =       667.3740  ANGLE   =      1886.3695  DIHED      =      2815.8210
 1-4 NB =       814.2100  1-4 EEL =     10532.1530  VDWAALS    =     15743.8202
 EELEC  =   -158140.6509  EHBOND  =         0.0000  RESTRAINT  =         0.0000
 EKCMT  =     11358.5786  VIRIAL  =      8989.3363  VOLUME     =    409875.7915
                                                    Density    =         1.0154
 ------------------------------------------------------------------------------

      A V E R A G E S   O V E R     300 S T E P S

 NSTEP = 15000000   TIME(PS) =  240110.000  TEMP(K) =   299.91  PRESS =     5.0
 Etot   =   -100725.1935  EKtot   =     24987.3728  EPtot      =   -125712.5663
 BOND   =       673.5948  ANGLE   =      1875.0400  DIHED      =      2823.4354
 1-4 NB =       808.9617  1-4 EEL =     10531.4972  VDWAALS    =     15583.5761
 EELEC  =   -158008.6715  EHBOND  =         0.0000  RESTRAINT  =         0.0000
 EKCMT  =     11236.3705  VIRIAL  =     11191.7082  VOLUME     =    410268.8208
                                                    Density    =         1.0144
 ------------------------------------------------------------------------------

      R M S  F L U C T U A T I O N S

 NSTEP = 15000000   TIME(PS) =  240110.000  TEMP(K) =     1.19  PRESS =   123.2
 Etot   =        44.7283  EKtot   =        99.4827  EPtot      =       111.8227
 BOND   =        21.6603  ANGLE   =        32.9793  DIHED      =        18.9879
 1-4 NB =        12.3873  1-4 EEL =        39.0630  VDWAALS    =       159.1151
 EELEC  =       218.3915  EHBOND  =         0.0000  RESTRAINT  =         0.0000
 EKCMT  =        75.5128  VIRIAL  =      1098.5196  VOLUME     =       450.3074
                                                    Density    =         0.0011
 ------------------------------------------------------------------------------
