-------------------------------------------------------
          Amber 24 PMEMD                              2024
          -------------------------------------------------------

  [-O]verwriting output

File Assignments:

 Here is the input file:

md 5 ns temp = 300 P=cte (ntb=2,ntp=1) No restraints
&cntrl
 nstlim = 15000000, dt = 0.002,
 ntx = 5, irest = 1, cut = 9.0, ioutfm = 1,
 ntpr = 50000, ntwr = 50000, ntwx = 50000,
 iwrap = 1,
 tempi = 300., temp0 = 300.,
 ntt = 1,
 ntb = 2, ntp = 1,
 ntc = 2, ntf = 2,
 ntr = 0,
&end

Note: ig = -1. Setting random seed to   795374 based on wallclock time in
      microseconds.

--------------------------------------------------------------------------------
   1.  RESOURCE   USE:
--------------------------------------------------------------------------------

 getting box info from netcdf restart file
 NATOM  =   34150 NTYPES =      16 NBONH =   32333 MBONA  =    1856
 NTHETH =    4021 MTHETA =    2510 NPHIH =    8146 MPHIA  =    7859
 NHPARM =       0 NPARM  =       0 NNB   =   60513 NRES   =   10422
 NBONA  =    1856 NTHETA =    2510 NPHIA =    7859 NUMBND =      78
 NUMANG =     179 NPTRA  =     199 NATYP =      39 NPHB   =       0
 IFBOX  =       1 NMXRS  =      30 IFCAP =       0 NEXTRA =       0
 NCOPY  =       0

     BOX TYPE: RECTILINEAR

--------------------------------------------------------------------------------
   2.  CONTROL  DATA  FOR  THE  RUN
--------------------------------------------------------------------------------

default_name

General flags:
     imin    =       0, nmropt  =       0

Nature and format of input:
     ntx     =       5, irest   =       1, ntrx    =       1

Nature and format of output:
     ntxo    =       2, ntpr    =   50000, ntrx    =       1, ntwr    =   50000
     iwrap   =       1, ntwx    =   50000, ntwv    =       0, ntwe    =       0
     ioutfm  =       1, ntwprt  =       0, idecomp =       0, rbornstat=      0

Potential function:
     ntf     =       2, ntb     =       2, igb     =       0, nsnb    =      25
     ipol    =       0, gbsa    =       0, iesp    =       0
     dielc   =   1.00000, cut     =   9.00000, intdiel =   1.00000

Frozen or restrained atoms:
     ibelly  =       0, ntr     =       0

Molecular dynamics:
     nstlim  =  15000000, nscm    =      1000, nrespa  =         1
     t       =   0.00000, dt      =   0.00200, vlimit  =  -1.00000

Berendsen (weak-coupling) temperature regulation:
     temp0   = 300.00000, tempi   = 300.00000, tautp   =   1.00000

Pressure regulation:
     ntp     =       1
     pres0   =   1.00000, comp    =  44.60000, taup    =   1.00000

SHAKE:
     ntc     =       2, jfastw  =       0
     tol     =   0.00001

Ewald parameters:
     verbose =       0, ew_type =       0, nbflag  =       1, use_pme =       1
     vdwmeth =       1, eedmeth =       1, netfrc  =       1
     Box X =   79.251   Box Y =   67.851   Box Z =   63.496
     Alpha =   90.000   Beta  =   90.000   Gamma =   90.000
     NFFT1 =   80       NFFT2 =   64       NFFT3 =   64
     Cutoff=    9.000   Tol   =0.100E-04
     Ewald Coefficient =  0.30768
     Interpolation order =    4

--------------------------------------------------------------------------------
   3.  ATOMIC COORDINATES AND VELOCITIES
--------------------------------------------------------------------------------

default_name
 begin time read from input coords = 60110.000 ps

 Number of triangulated 3-point waters found:    10191

     Sum of charges from parm topology file =  -0.00000110
     Forcing neutrality...

--------------------------------------------------------------------------------
   4.  RESULTS
 NSTEP =    50000   TIME(PS) =   60210.000  TEMP(K) =   301.03  PRESS =   124.2
 Etot   =    -82984.2298  EKtot   =     20971.1680  EPtot      =   -103955.3977
 BOND   =       653.8444  ANGLE   =      1932.6545  DIHED      =      2806.3587
 1-4 NB =       797.5277  1-4 EEL =     10665.5371  VDWAALS    =     12379.0959
 EELEC  =   -133190.4161  EHBOND  =         0.0000  RESTRAINT  =         0.0000
 EKCMT  =      9253.6626  VIRIAL  =      8340.0818  VOLUME     =    340781.6411
                                                    Density    =         1.0202
 ------------------------------------------------------------------------------

      A V E R A G E S   O V E R     300 S T E P S

 NSTEP = 15000000   TIME(PS) =   90110.000  TEMP(K) =   299.91  PRESS =    -2.6
 Etot   =    -82952.6681  EKtot   =     20893.1378  EPtot      =   -103845.8059
 BOND   =       670.8025  ANGLE   =      1873.8812  DIHED      =      2816.9715
 1-4 NB =       804.9865  1-4 EEL =     10618.8175  VDWAALS    =     12341.8250
 EELEC  =   -132973.0901  EHBOND  =         0.0000  RESTRAINT  =         0.0000
 EKCMT  =      9182.6261  VIRIAL  =      9201.7585  VOLUME     =    340865.1445
                                                    Density    =         1.0199
 ------------------------------------------------------------------------------

      R M S  F L U C T U A T I O N S

 NSTEP = 15000000   TIME(PS) =   90110.000  TEMP(K) =     1.24  PRESS =   124.3
 Etot   =        40.6034  EKtot   =        86.1580  EPtot      =        98.3421
 BOND   =        21.4032  ANGLE   =        32.1729  DIHED      =        19.7746
 1-4 NB =        11.6483  1-4 EEL =        40.2906  VDWAALS    =       148.0436
 EELEC  =       192.3479  EHBOND  =         0.0000  RESTRAINT  =         0.0000
 EKCMT  =        66.8961  VIRIAL  =       923.0786  VOLUME     =       454.3809
                                                    Density    =         0.0014
 ------------------------------------------------------------------------------
