-------------------------------------------------------
          Amber 24 PMEMD                              2024
          -------------------------------------------------------

  [-O]verwriting output

File Assignments:

 Here is the input file:

eq5 temp = 300, k = 1 P=cte (ntb=2, ntp=1)
&cntrl
 nstlim = 5000, dt = 0.002,
 ntx = 7, irest = 1, iwrap = 1, cut = 9.0, ioutfm = 1,
 ntpr = 1000, ntwr = 1000, ntwx = 1000,
 tempi = 300., temp0 = 300.,
 ntt = 1,
 ntb = 2, ntp = 1,
 ntc = 2, ntf = 2,
 ntr = 1, restraint_wt = 0.1, restraintmask = ":1-225@CA"
&end
&wt
type="END",
&end

Note: ig = -1. Setting random seed to   627432 based on wallclock time in
      microseconds.

--------------------------------------------------------------------------------
   1.  RESOURCE   USE:
--------------------------------------------------------------------------------

 getting box info from netcdf restart file
 NATOM  =   34150 NTYPES =      16 NBONH =   32333 MBONA  =    1856
 NTHETH =    4021 MTHETA =    2510 NPHIH =    8146 MPHIA  =    7859
 NHPARM =       0 NPARM  =       0 NNB   =   60513 NRES   =   10422
 NBONA  =    1856 NTHETA =    2510 NPHIA =    7859 NUMBND =      78
 NUMANG =     179 NPTRA  =     199 NATYP =      39 NPHB   =       0
 IFBOX  =       1 NMXRS  =      30 IFCAP =       0 NEXTRA =       0
 NCOPY  =       0

     BOX TYPE: RECTILINEAR

--------------------------------------------------------------------------------
   2.  CONTROL  DATA  FOR  THE  RUN
--------------------------------------------------------------------------------

default_name

General flags:
     imin    =       0, nmropt  =       0

Nature and format of input:
     ntx     =       7, irest   =       1, ntrx    =       1

Nature and format of output:
     ntxo    =       2, ntpr    =    1000, ntrx    =       1, ntwr    =    1000
     iwrap   =       1, ntwx    =    1000, ntwv    =       0, ntwe    =       0
     ioutfm  =       1, ntwprt  =       0, idecomp =       0, rbornstat=      0

Potential function:
     ntf     =       2, ntb     =       2, igb     =       0, nsnb    =      25
     ipol    =       0, gbsa    =       0, iesp    =       0
     dielc   =   1.00000, cut     =   9.00000, intdiel =   1.00000

Frozen or restrained atoms:
     ibelly  =       0, ntr     =       1
     restraint_wt =   0.10000

Molecular dynamics:
     nstlim  =      5000, nscm    =         0, nrespa  =         1
     t       =   0.00000, dt      =   0.00200, vlimit  =  -1.00000

Berendsen (weak-coupling) temperature regulation:
     temp0   = 300.00000, tempi   = 300.00000, tautp   =   1.00000

Pressure regulation:
     ntp     =       1
     pres0   =   1.00000, comp    =  44.60000, taup    =   1.00000

SHAKE:
     ntc     =       2, jfastw  =       0
     tol     =   0.00001

Ewald parameters:
     verbose =       0, ew_type =       0, nbflag  =       1, use_pme =       1
     vdwmeth =       1, eedmeth =       1, netfrc  =       1
     Box X =   85.219   Box Y =   72.959   Box Z =   68.277
     Alpha =   90.000   Beta  =   90.000   Gamma =   90.000
     NFFT1 =   96       NFFT2 =   80       NFFT3 =   72
     Cutoff=    9.000   Tol   =0.100E-04
     Ewald Coefficient =  0.30768
     Interpolation order =    4

    LOADING THE CONSTRAINED ATOMS AS GROUPS

   5.  REFERENCE ATOM COORDINATES

  default_name
     Mask :1-225@CA; matches   224 atoms

--------------------------------------------------------------------------------
   3.  ATOMIC COORDINATES AND VELOCITIES
--------------------------------------------------------------------------------

default_name
 begin time read from input coords =   100.000 ps

 Number of triangulated 3-point waters found:    10191

     Sum of charges from parm topology file =  -0.00000110
     Forcing neutrality...

--------------------------------------------------------------------------------
   4.  RESULTS
 NSTEP =     1000   TIME(PS) =     102.000  TEMP(K) =   300.01  PRESS =  -315.9
 Etot   =    -81236.0962  EKtot   =     20900.8516  EPtot      =   -102136.9477
 BOND   =       669.7063  ANGLE   =      1895.6394  DIHED      =      2860.9512
 1-4 NB =       801.1322  1-4 EEL =     10672.1257  VDWAALS    =     12219.4470
 EELEC  =   -131265.9919  EHBOND  =         0.0000  RESTRAINT  =        10.0424
 EAMBER (non-restraint)  =   -102146.9901
 EKCMT  =      9215.5508  VIRIAL  =     12035.5961  VOLUME     =    413450.5774
                                                    Density    =         0.8409
 ------------------------------------------------------------------------------

      A V E R A G E S   O V E R       5 S T E P S

 NSTEP =     5000   TIME(PS) =     110.000  TEMP(K) =   298.93  PRESS =  -245.4
 Etot   =    -81592.5904  EKtot   =     20825.7000  EPtot      =   -102418.2904
 BOND   =       684.9635  ANGLE   =      1874.0803  DIHED      =      2846.2265
 1-4 NB =       800.8567  1-4 EEL =     10658.5324  VDWAALS    =     12248.9942
 EELEC  =   -131543.0029  EHBOND  =         0.0000  RESTRAINT  =        11.0589
 EAMBER (non-restraint)  =   -102429.3494
 EKCMT  =      9151.6907  VIRIAL  =     11250.5345  VOLUME     =    393875.2271
                                                    Density    =         0.8837
 ------------------------------------------------------------------------------

      R M S  F L U C T U A T I O N S

 NSTEP =     5000   TIME(PS) =     110.000  TEMP(K) =     1.26  PRESS =    59.3
 Etot   =       226.5366  EKtot   =        87.9359  EPtot      =       178.4383
 BOND   =        22.7173  ANGLE   =        30.7730  DIHED      =        16.4194
 1-4 NB =        10.8168  1-4 EEL =        25.4489  VDWAALS    =        82.5153
 EELEC  =       208.7636  EHBOND  =         0.0000  RESTRAINT  =         0.6251
 EAMBER (non-restraint)  =       177.8132
 EKCMT  =        39.0967  VIRIAL  =       576.4145  VOLUME     =     13642.9133
                                                    Density    =         0.0306
 ------------------------------------------------------------------------------
