-------------------------------------------------------
          Amber 24 PMEMD                              2024
          -------------------------------------------------------

  [-O]verwriting output

File Assignments:

 Here is the input file:

md 5 ns temp = 300 P=cte (ntb=2,ntp=1) No restraints
&cntrl
 nstlim = 15000000, dt = 0.002,
 ntx = 5, irest = 1, cut = 9.0, ioutfm = 1,
 ntpr = 50000, ntwr = 50000, ntwx = 50000,
 iwrap = 1,
 tempi = 300., temp0 = 300.,
 ntt = 1,
 ntb = 2, ntp = 1,
 ntc = 2, ntf = 2,
 ntr = 0,
&end

Note: ig = -1. Setting random seed to   609602 based on wallclock time in
      microseconds.

--------------------------------------------------------------------------------
   1.  RESOURCE   USE:
--------------------------------------------------------------------------------

 getting box info from netcdf restart file
 NATOM  =   34150 NTYPES =      16 NBONH =   32333 MBONA  =    1856
 NTHETH =    4021 MTHETA =    2510 NPHIH =    8146 MPHIA  =    7859
 NHPARM =       0 NPARM  =       0 NNB   =   60513 NRES   =   10422
 NBONA  =    1856 NTHETA =    2510 NPHIA =    7859 NUMBND =      78
 NUMANG =     179 NPTRA  =     199 NATYP =      39 NPHB   =       0
 IFBOX  =       1 NMXRS  =      30 IFCAP =       0 NEXTRA =       0
 NCOPY  =       0

     BOX TYPE: RECTILINEAR

--------------------------------------------------------------------------------
   2.  CONTROL  DATA  FOR  THE  RUN
--------------------------------------------------------------------------------

default_name

General flags:
     imin    =       0, nmropt  =       0

Nature and format of input:
     ntx     =       5, irest   =       1, ntrx    =       1

Nature and format of output:
     ntxo    =       2, ntpr    =   50000, ntrx    =       1, ntwr    =   50000
     iwrap   =       1, ntwx    =   50000, ntwv    =       0, ntwe    =       0
     ioutfm  =       1, ntwprt  =       0, idecomp =       0, rbornstat=      0

Potential function:
     ntf     =       2, ntb     =       2, igb     =       0, nsnb    =      25
     ipol    =       0, gbsa    =       0, iesp    =       0
     dielc   =   1.00000, cut     =   9.00000, intdiel =   1.00000

Frozen or restrained atoms:
     ibelly  =       0, ntr     =       0

Molecular dynamics:
     nstlim  =  15000000, nscm    =      1000, nrespa  =         1
     t       =   0.00000, dt      =   0.00200, vlimit  =  -1.00000

Berendsen (weak-coupling) temperature regulation:
     temp0   = 300.00000, tempi   = 300.00000, tautp   =   1.00000

Pressure regulation:
     ntp     =       1
     pres0   =   1.00000, comp    =  44.60000, taup    =   1.00000

SHAKE:
     ntc     =       2, jfastw  =       0
     tol     =   0.00001

Ewald parameters:
     verbose =       0, ew_type =       0, nbflag  =       1, use_pme =       1
     vdwmeth =       1, eedmeth =       1, netfrc  =       1
     Box X =   79.153   Box Y =   67.767   Box Z =   63.417
     Alpha =   90.000   Beta  =   90.000   Gamma =   90.000
     NFFT1 =   80       NFFT2 =   64       NFFT3 =   64
     Cutoff=    9.000   Tol   =0.100E-04
     Ewald Coefficient =  0.30768
     Interpolation order =    4

--------------------------------------------------------------------------------
   3.  ATOMIC COORDINATES AND VELOCITIES
--------------------------------------------------------------------------------

default_name
 begin time read from input coords =210110.000 ps

 Number of triangulated 3-point waters found:    10191

     Sum of charges from parm topology file =  -0.00000110
     Forcing neutrality...

--------------------------------------------------------------------------------
   4.  RESULTS
 NSTEP =    50000   TIME(PS) =  210210.000  TEMP(K) =   299.30  PRESS =  -233.8
 Etot   =    -82913.5536  EKtot   =     20850.7871  EPtot      =   -103764.3407
 BOND   =       654.9628  ANGLE   =      1888.4510  DIHED      =      2825.8355
 1-4 NB =       811.5658  1-4 EEL =     10603.9034  VDWAALS    =     12017.0809
 EELEC  =   -132566.1399  EHBOND  =         0.0000  RESTRAINT  =         0.0000
 EKCMT  =      9218.0796  VIRIAL  =     10939.7482  VOLUME     =    341049.3754
                                                    Density    =         1.0194
 ------------------------------------------------------------------------------

      A V E R A G E S   O V E R     300 S T E P S

 NSTEP = 15000000   TIME(PS) =  240110.000  TEMP(K) =   300.00  PRESS =     1.6
 Etot   =    -82965.9990  EKtot   =     20899.8154  EPtot      =   -103865.8144
 BOND   =       672.9159  ANGLE   =      1868.9923  DIHED      =      2818.1911
 1-4 NB =       800.8594  1-4 EEL =     10623.1261  VDWAALS    =     12331.6031
 EELEC  =   -132981.5023  EHBOND  =         0.0000  RESTRAINT  =         0.0000
 EKCMT  =      9181.7822  VIRIAL  =      9170.1175  VOLUME     =    340768.8652
                                                    Density    =         1.0202
 ------------------------------------------------------------------------------

      R M S  F L U C T U A T I O N S

 NSTEP = 15000000   TIME(PS) =  240110.000  TEMP(K) =     1.15  PRESS =   120.7
 Etot   =        41.8903  EKtot   =        80.2821  EPtot      =        92.3565
 BOND   =        20.5627  ANGLE   =        33.4647  DIHED      =        21.4087
 1-4 NB =        12.0391  1-4 EEL =        41.7202  VDWAALS    =       138.1615
 EELEC  =       186.0165  EHBOND  =         0.0000  RESTRAINT  =         0.0000
 EKCMT  =        66.4449  VIRIAL  =       890.6810  VOLUME     =       392.7451
                                                    Density    =         0.0012
 ------------------------------------------------------------------------------
