-------------------------------------------------------
          Amber 24 PMEMD                              2024
          -------------------------------------------------------

  [-O]verwriting output

File Assignments:

 Here is the input file:

md 5 ns temp = 300 P=cte (ntb=2,ntp=1) No restraints
&cntrl
 nstlim = 15000000, dt = 0.002,
 ntx = 5, irest = 1, cut = 9.0, ioutfm = 1,
 ntpr = 50000, ntwr = 50000, ntwx = 50000,
 iwrap = 1,
 tempi = 300., temp0 = 300.,
 ntt = 1,
 ntb = 2, ntp = 1,
 ntc = 2, ntf = 2,
 ntr = 0,
&end

Note: ig = -1. Setting random seed to   894524 based on wallclock time in
      microseconds.

--------------------------------------------------------------------------------
   1.  RESOURCE   USE:
--------------------------------------------------------------------------------

 getting box info from netcdf restart file
 NATOM  =   34150 NTYPES =      16 NBONH =   32333 MBONA  =    1856
 NTHETH =    4021 MTHETA =    2510 NPHIH =    8146 MPHIA  =    7859
 NHPARM =       0 NPARM  =       0 NNB   =   60513 NRES   =   10422
 NBONA  =    1856 NTHETA =    2510 NPHIA =    7859 NUMBND =      78
 NUMANG =     179 NPTRA  =     199 NATYP =      39 NPHB   =       0
 IFBOX  =       1 NMXRS  =      30 IFCAP =       0 NEXTRA =       0
 NCOPY  =       0

     BOX TYPE: RECTILINEAR

--------------------------------------------------------------------------------
   2.  CONTROL  DATA  FOR  THE  RUN
--------------------------------------------------------------------------------

default_name

General flags:
     imin    =       0, nmropt  =       0

Nature and format of input:
     ntx     =       5, irest   =       1, ntrx    =       1

Nature and format of output:
     ntxo    =       2, ntpr    =   50000, ntrx    =       1, ntwr    =   50000
     iwrap   =       1, ntwx    =   50000, ntwv    =       0, ntwe    =       0
     ioutfm  =       1, ntwprt  =       0, idecomp =       0, rbornstat=      0

Potential function:
     ntf     =       2, ntb     =       2, igb     =       0, nsnb    =      25
     ipol    =       0, gbsa    =       0, iesp    =       0
     dielc   =   1.00000, cut     =   9.00000, intdiel =   1.00000

Frozen or restrained atoms:
     ibelly  =       0, ntr     =       0

Molecular dynamics:
     nstlim  =  15000000, nscm    =      1000, nrespa  =         1
     t       =   0.00000, dt      =   0.00200, vlimit  =  -1.00000

Berendsen (weak-coupling) temperature regulation:
     temp0   = 300.00000, tempi   = 300.00000, tautp   =   1.00000

Pressure regulation:
     ntp     =       1
     pres0   =   1.00000, comp    =  44.60000, taup    =   1.00000

SHAKE:
     ntc     =       2, jfastw  =       0
     tol     =   0.00001

Ewald parameters:
     verbose =       0, ew_type =       0, nbflag  =       1, use_pme =       1
     vdwmeth =       1, eedmeth =       1, netfrc  =       1
     Box X =   81.742   Box Y =   69.983   Box Z =   65.491
     Alpha =   90.000   Beta  =   90.000   Gamma =   90.000
     NFFT1 =   84       NFFT2 =   72       NFFT3 =   64
     Cutoff=    9.000   Tol   =0.100E-04
     Ewald Coefficient =  0.30768
     Interpolation order =    4

--------------------------------------------------------------------------------
   3.  ATOMIC COORDINATES AND VELOCITIES
--------------------------------------------------------------------------------

Cpptraj Generated Restart
 begin time read from input coords =   110.000 ps

 Number of triangulated 3-point waters found:    10191

     Sum of charges from parm topology file =  -0.00000110
     Forcing neutrality...

--------------------------------------------------------------------------------
   4.  RESULTS
 NSTEP =    50000   TIME(PS) =     210.000  TEMP(K) =   300.29  PRESS =   -65.7
 Etot   =    -82826.2144  EKtot   =     20919.9492  EPtot      =   -103746.1636
 BOND   =       716.4687  ANGLE   =      1855.3936  DIHED      =      2810.5367
 1-4 NB =       827.7066  1-4 EEL =     10630.9940  VDWAALS    =     12208.6320
 EELEC  =   -132795.8953  EHBOND  =         0.0000  RESTRAINT  =         0.0000
 EKCMT  =      9275.7067  VIRIAL  =      9759.8366  VOLUME     =    341401.6529
                                                    Density    =         1.0183
 ------------------------------------------------------------------------------

      A V E R A G E S   O V E R     300 S T E P S

 NSTEP = 15000000   TIME(PS) =   30110.000  TEMP(K) =   299.83  PRESS =     9.2
 Etot   =    -82946.0683  EKtot   =     20887.6343  EPtot      =   -103833.7026
 BOND   =       672.2335  ANGLE   =      1874.2895  DIHED      =      2810.0476
 1-4 NB =       805.8456  1-4 EEL =     10608.7890  VDWAALS    =     12350.6596
 EELEC  =   -132955.5674  EHBOND  =         0.0000  RESTRAINT  =         0.0000
 EKCMT  =      9179.2146  VIRIAL  =      9111.4499  VOLUME     =    340930.5812
                                                    Density    =         1.0197
 ------------------------------------------------------------------------------

      R M S  F L U C T U A T I O N S

 NSTEP = 15000000   TIME(PS) =   30110.000  TEMP(K) =     1.20  PRESS =   132.2
 Etot   =        39.9122  EKtot   =        83.7676  EPtot      =        95.1675
 BOND   =        21.2371  ANGLE   =        30.1344  DIHED      =        19.9369
 1-4 NB =        11.7130  1-4 EEL =        40.8262  VDWAALS    =       129.9009
 EELEC  =       184.0074  EHBOND  =         0.0000  RESTRAINT  =         0.0000
 EKCMT  =        65.2967  VIRIAL  =       975.3870  VOLUME     =       427.1244
                                                    Density    =         0.0013
 ------------------------------------------------------------------------------
