-------------------------------------------------------
          Amber 24 PMEMD                              2024
          -------------------------------------------------------

  [-O]verwriting output

File Assignments:

 Here is the input file:

md 5 ns temp = 300 P=cte (ntb=2,ntp=1) No restraints
&cntrl
 nstlim = 15000000, dt = 0.002,
 ntx = 5, irest = 1, cut = 9.0, ioutfm = 1,
 ntpr = 50000, ntwr = 50000, ntwx = 50000,
 iwrap = 1,
 tempi = 300., temp0 = 300.,
 ntt = 1,
 ntb = 2, ntp = 1,
 ntc = 2, ntf = 2,
 ntr = 0,
&end

Note: ig = -1. Setting random seed to   486172 based on wallclock time in
      microseconds.

--------------------------------------------------------------------------------
   1.  RESOURCE   USE:
--------------------------------------------------------------------------------

 getting box info from netcdf restart file
 NATOM  =   34150 NTYPES =      16 NBONH =   32333 MBONA  =    1856
 NTHETH =    4021 MTHETA =    2510 NPHIH =    8146 MPHIA  =    7859
 NHPARM =       0 NPARM  =       0 NNB   =   60513 NRES   =   10422
 NBONA  =    1856 NTHETA =    2510 NPHIA =    7859 NUMBND =      78
 NUMANG =     179 NPTRA  =     199 NATYP =      39 NPHB   =       0
 IFBOX  =       1 NMXRS  =      30 IFCAP =       0 NEXTRA =       0
 NCOPY  =       0

     BOX TYPE: RECTILINEAR

--------------------------------------------------------------------------------
   2.  CONTROL  DATA  FOR  THE  RUN
--------------------------------------------------------------------------------

default_name

General flags:
     imin    =       0, nmropt  =       0

Nature and format of input:
     ntx     =       5, irest   =       1, ntrx    =       1

Nature and format of output:
     ntxo    =       2, ntpr    =   50000, ntrx    =       1, ntwr    =   50000
     iwrap   =       1, ntwx    =   50000, ntwv    =       0, ntwe    =       0
     ioutfm  =       1, ntwprt  =       0, idecomp =       0, rbornstat=      0

Potential function:
     ntf     =       2, ntb     =       2, igb     =       0, nsnb    =      25
     ipol    =       0, gbsa    =       0, iesp    =       0
     dielc   =   1.00000, cut     =   9.00000, intdiel =   1.00000

Frozen or restrained atoms:
     ibelly  =       0, ntr     =       0

Molecular dynamics:
     nstlim  =  15000000, nscm    =      1000, nrespa  =         1
     t       =   0.00000, dt      =   0.00200, vlimit  =  -1.00000

Berendsen (weak-coupling) temperature regulation:
     temp0   = 300.00000, tempi   = 300.00000, tautp   =   1.00000

Pressure regulation:
     ntp     =       1
     pres0   =   1.00000, comp    =  44.60000, taup    =   1.00000

SHAKE:
     ntc     =       2, jfastw  =       0
     tol     =   0.00001

Ewald parameters:
     verbose =       0, ew_type =       0, nbflag  =       1, use_pme =       1
     vdwmeth =       1, eedmeth =       1, netfrc  =       1
     Box X =   79.220   Box Y =   67.824   Box Z =   63.470
     Alpha =   90.000   Beta  =   90.000   Gamma =   90.000
     NFFT1 =   80       NFFT2 =   64       NFFT3 =   64
     Cutoff=    9.000   Tol   =0.100E-04
     Ewald Coefficient =  0.30768
     Interpolation order =    4

--------------------------------------------------------------------------------
   3.  ATOMIC COORDINATES AND VELOCITIES
--------------------------------------------------------------------------------

default_name
 begin time read from input coords =240110.000 ps

 Number of triangulated 3-point waters found:    10191

     Sum of charges from parm topology file =  -0.00000110
     Forcing neutrality...

--------------------------------------------------------------------------------
   4.  RESULTS
 NSTEP =    50000   TIME(PS) =  240210.000  TEMP(K) =   299.51  PRESS =   200.8
 Etot   =    -82993.7861  EKtot   =     20865.4395  EPtot      =   -103859.2256
 BOND   =       622.7405  ANGLE   =      1889.0057  DIHED      =      2805.7809
 1-4 NB =       787.5832  1-4 EEL =     10670.7302  VDWAALS    =     12460.2686
 EELEC  =   -133095.3346  EHBOND  =         0.0000  RESTRAINT  =         0.0000
 EKCMT  =      9071.0422  VIRIAL  =      7594.2113  VOLUME     =    340599.6328
                                                    Density    =         1.0207
 ------------------------------------------------------------------------------

      A V E R A G E S   O V E R     300 S T E P S

 NSTEP = 15000000   TIME(PS) =  270110.000  TEMP(K) =   299.93  PRESS =   -13.2
 Etot   =    -82965.6417  EKtot   =     20894.9530  EPtot      =   -103860.5947
 BOND   =       670.6356  ANGLE   =      1866.6599  DIHED      =      2818.2959
 1-4 NB =       802.9155  1-4 EEL =     10654.2821  VDWAALS    =     12317.7663
 EELEC  =   -132991.1500  EHBOND  =         0.0000  RESTRAINT  =         0.0000
 EKCMT  =      9180.4976  VIRIAL  =      9277.5559  VOLUME     =    340795.9092
                                                    Density    =         1.0202
 ------------------------------------------------------------------------------

      R M S  F L U C T U A T I O N S

 NSTEP = 15000000   TIME(PS) =  270110.000  TEMP(K) =     1.29  PRESS =   132.4
 Etot   =        42.7895  EKtot   =        89.6248  EPtot      =        98.2573
 BOND   =        21.9957  ANGLE   =        30.1122  DIHED      =        18.4626
 1-4 NB =        11.6335  1-4 EEL =        40.0486  VDWAALS    =       138.6044
 EELEC  =       187.2628  EHBOND  =         0.0000  RESTRAINT  =         0.0000
 EKCMT  =        69.0007  VIRIAL  =       976.6848  VOLUME     =       435.4170
                                                    Density    =         0.0013
 ------------------------------------------------------------------------------
