-------------------------------------------------------
          Amber 24 PMEMD                              2024
          -------------------------------------------------------

  [-O]verwriting output

File Assignments:

 Here is the input file:

eq3 temp = 300, k = 5 V=cte (ntb=1)
&cntrl
 nstlim = 10000, dt = 0.002,
 ntx = 7, irest = 1, iwrap=0, cut = 9.0, ioutfm = 1,
 ntpr = 500, ntwr = 500, ntwx =500,
 tempi = 300., temp0 = 300.,
 ntt = 1,
 ntb = 1,
 ntc = 2, ntf = 2,
 ntr = 1,
 restraint_wt = 0.5, restraintmask = ":1-225@CA"
&end

Note: ig = -1. Setting random seed to   328310 based on wallclock time in
      microseconds.

--------------------------------------------------------------------------------
   1.  RESOURCE   USE:
--------------------------------------------------------------------------------

 getting box info from netcdf restart file
 NATOM  =   34150 NTYPES =      16 NBONH =   32333 MBONA  =    1856
 NTHETH =    4021 MTHETA =    2510 NPHIH =    8146 MPHIA  =    7859
 NHPARM =       0 NPARM  =       0 NNB   =   60513 NRES   =   10422
 NBONA  =    1856 NTHETA =    2510 NPHIA =    7859 NUMBND =      78
 NUMANG =     179 NPTRA  =     199 NATYP =      39 NPHB   =       0
 IFBOX  =       1 NMXRS  =      30 IFCAP =       0 NEXTRA =       0
 NCOPY  =       0

     BOX TYPE: RECTILINEAR

--------------------------------------------------------------------------------
   2.  CONTROL  DATA  FOR  THE  RUN
--------------------------------------------------------------------------------

default_name

General flags:
     imin    =       0, nmropt  =       0

Nature and format of input:
     ntx     =       7, irest   =       1, ntrx    =       1

Nature and format of output:
     ntxo    =       2, ntpr    =     500, ntrx    =       1, ntwr    =     500
     iwrap   =       0, ntwx    =     500, ntwv    =       0, ntwe    =       0
     ioutfm  =       1, ntwprt  =       0, idecomp =       0, rbornstat=      0

Potential function:
     ntf     =       2, ntb     =       1, igb     =       0, nsnb    =      25
     ipol    =       0, gbsa    =       0, iesp    =       0
     dielc   =   1.00000, cut     =   9.00000, intdiel =   1.00000

Frozen or restrained atoms:
     ibelly  =       0, ntr     =       1
     restraint_wt =   0.50000

Molecular dynamics:
     nstlim  =     10000, nscm    =         0, nrespa  =         1
     t       =   0.00000, dt      =   0.00200, vlimit  =  -1.00000

Berendsen (weak-coupling) temperature regulation:
     temp0   = 300.00000, tempi   = 300.00000, tautp   =   1.00000

SHAKE:
     ntc     =       2, jfastw  =       0
     tol     =   0.00001

Ewald parameters:
     verbose =       0, ew_type =       0, nbflag  =       1, use_pme =       1
     vdwmeth =       1, eedmeth =       1, netfrc  =       1
     Box X =   85.219   Box Y =   72.959   Box Z =   68.277
     Alpha =   90.000   Beta  =   90.000   Gamma =   90.000
     NFFT1 =   96       NFFT2 =   80       NFFT3 =   72
     Cutoff=    9.000   Tol   =0.100E-04
     Ewald Coefficient =  0.30768
     Interpolation order =    4

    LOADING THE CONSTRAINED ATOMS AS GROUPS

   5.  REFERENCE ATOM COORDINATES

  default_name
     Mask :1-225@CA; matches   224 atoms

--------------------------------------------------------------------------------
   3.  ATOMIC COORDINATES AND VELOCITIES
--------------------------------------------------------------------------------

default_name
 begin time read from input coords =    60.000 ps

 Number of triangulated 3-point waters found:    10191

     Sum of charges from parm topology file =  -0.00000110
     Forcing neutrality...

--------------------------------------------------------------------------------
   4.  RESULTS
 NSTEP =      500   TIME(PS) =      61.000  TEMP(K) =   299.26  PRESS =     0.0
 Etot   =    -80923.7183  EKtot   =     20848.6777  EPtot      =   -101772.3960
 BOND   =       657.3254  ANGLE   =      1892.7013  DIHED      =      2886.7890
 1-4 NB =       812.2076  1-4 EEL =     10715.6554  VDWAALS    =     11861.8920
 EELEC  =   -130626.2996  EHBOND  =         0.0000  RESTRAINT  =        27.3328
 EAMBER (non-restraint)  =   -101799.7288
 ------------------------------------------------------------------------------

      A V E R A G E S   O V E R      20 S T E P S

 NSTEP =    10000   TIME(PS) =      80.000  TEMP(K) =   300.09  PRESS =     0.0
 Etot   =    -80866.2715  EKtot   =     20906.8798  EPtot      =   -101773.1513
 BOND   =       678.7446  ANGLE   =      1841.7309  DIHED      =      2856.8844
 1-4 NB =       808.6305  1-4 EEL =     10714.3649  VDWAALS    =     12069.8192
 EELEC  =   -130769.6273  EHBOND  =         0.0000  RESTRAINT  =        26.3015
 EAMBER (non-restraint)  =   -101799.4528
 ------------------------------------------------------------------------------

      R M S  F L U C T U A T I O N S

 NSTEP =    10000   TIME(PS) =      80.000  TEMP(K) =     1.23  PRESS =     0.0
 Etot   =        29.2484  EKtot   =        85.9126  EPtot      =        85.6500
 BOND   =        18.5016  ANGLE   =        26.3473  DIHED      =        15.5000
 1-4 NB =         9.9977  1-4 EEL =        29.0865  VDWAALS    =       155.1487
 EELEC  =       197.0397  EHBOND  =         0.0000  RESTRAINT  =         2.0635
 EAMBER (non-restraint)  =        83.5865
 ------------------------------------------------------------------------------
