-------------------------------------------------------
          Amber 24 PMEMD                              2024
          -------------------------------------------------------

  [-O]verwriting output

File Assignments:

 Here is the input file:

md 5 ns temp = 300 P=cte (ntb=2,ntp=1) No restraints
&cntrl
 nstlim = 15000000, dt = 0.002,
 ntx = 5, irest = 1, cut = 9.0, ioutfm = 1,
 ntpr = 50000, ntwr = 50000, ntwx = 50000,
 iwrap = 1,
 tempi = 300., temp0 = 300.,
 ntt = 1,
 ntb = 2, ntp = 1,
 ntc = 2, ntf = 2,
 ntr = 0,
&end

Note: ig = -1. Setting random seed to   573005 based on wallclock time in
      microseconds.

--------------------------------------------------------------------------------
   1.  RESOURCE   USE:
--------------------------------------------------------------------------------

 getting box info from netcdf restart file
 NATOM  =   34150 NTYPES =      16 NBONH =   32333 MBONA  =    1856
 NTHETH =    4021 MTHETA =    2510 NPHIH =    8146 MPHIA  =    7859
 NHPARM =       0 NPARM  =       0 NNB   =   60513 NRES   =   10422
 NBONA  =    1856 NTHETA =    2510 NPHIA =    7859 NUMBND =      78
 NUMANG =     179 NPTRA  =     199 NATYP =      39 NPHB   =       0
 IFBOX  =       1 NMXRS  =      30 IFCAP =       0 NEXTRA =       0
 NCOPY  =       0

     BOX TYPE: RECTILINEAR

--------------------------------------------------------------------------------
   2.  CONTROL  DATA  FOR  THE  RUN
--------------------------------------------------------------------------------

default_name

General flags:
     imin    =       0, nmropt  =       0

Nature and format of input:
     ntx     =       5, irest   =       1, ntrx    =       1

Nature and format of output:
     ntxo    =       2, ntpr    =   50000, ntrx    =       1, ntwr    =   50000
     iwrap   =       1, ntwx    =   50000, ntwv    =       0, ntwe    =       0
     ioutfm  =       1, ntwprt  =       0, idecomp =       0, rbornstat=      0

Potential function:
     ntf     =       2, ntb     =       2, igb     =       0, nsnb    =      25
     ipol    =       0, gbsa    =       0, iesp    =       0
     dielc   =   1.00000, cut     =   9.00000, intdiel =   1.00000

Frozen or restrained atoms:
     ibelly  =       0, ntr     =       0

Molecular dynamics:
     nstlim  =  15000000, nscm    =      1000, nrespa  =         1
     t       =   0.00000, dt      =   0.00200, vlimit  =  -1.00000

Berendsen (weak-coupling) temperature regulation:
     temp0   = 300.00000, tempi   = 300.00000, tautp   =   1.00000

Pressure regulation:
     ntp     =       1
     pres0   =   1.00000, comp    =  44.60000, taup    =   1.00000

SHAKE:
     ntc     =       2, jfastw  =       0
     tol     =   0.00001

Ewald parameters:
     verbose =       0, ew_type =       0, nbflag  =       1, use_pme =       1
     vdwmeth =       1, eedmeth =       1, netfrc  =       1
     Box X =   79.205   Box Y =   67.811   Box Z =   63.459
     Alpha =   90.000   Beta  =   90.000   Gamma =   90.000
     NFFT1 =   80       NFFT2 =   64       NFFT3 =   64
     Cutoff=    9.000   Tol   =0.100E-04
     Ewald Coefficient =  0.30768
     Interpolation order =    4

--------------------------------------------------------------------------------
   3.  ATOMIC COORDINATES AND VELOCITIES
--------------------------------------------------------------------------------

default_name
 begin time read from input coords =270110.000 ps

 Number of triangulated 3-point waters found:    10191

     Sum of charges from parm topology file =  -0.00000110
     Forcing neutrality...

--------------------------------------------------------------------------------
   4.  RESULTS
 NSTEP =    50000   TIME(PS) =  270210.000  TEMP(K) =   299.75  PRESS =     5.6
 Etot   =    -82910.2035  EKtot   =     20882.2070  EPtot      =   -103792.4105
 BOND   =       676.2342  ANGLE   =      1920.3855  DIHED      =      2851.2415
 1-4 NB =       816.7046  1-4 EEL =     10640.3046  VDWAALS    =     12363.7886
 EELEC  =   -133061.0695  EHBOND  =         0.0000  RESTRAINT  =         0.0000
 EKCMT  =      9144.0576  VIRIAL  =      9103.1341  VOLUME     =    340569.7558
                                                    Density    =         1.0208
 ------------------------------------------------------------------------------

      A V E R A G E S   O V E R     300 S T E P S

 NSTEP = 15000000   TIME(PS) =  300110.000  TEMP(K) =   299.96  PRESS =     0.4
 Etot   =    -82977.0621  EKtot   =     20896.4048  EPtot      =   -103873.4669
 BOND   =       673.4864  ANGLE   =      1873.4365  DIHED      =      2813.9406
 1-4 NB =       802.4149  1-4 EEL =     10637.3505  VDWAALS    =     12340.7122
 EELEC  =   -133014.8081  EHBOND  =         0.0000  RESTRAINT  =         0.0000
 EKCMT  =      9180.7374  VIRIAL  =      9177.8913  VOLUME     =    340779.2221
                                                    Density    =         1.0202
 ------------------------------------------------------------------------------

      R M S  F L U C T U A T I O N S

 NSTEP = 15000000   TIME(PS) =  300110.000  TEMP(K) =     1.26  PRESS =   120.8
 Etot   =        42.8915  EKtot   =        87.8334  EPtot      =        98.5568
 BOND   =        21.4395  ANGLE   =        33.1694  DIHED      =        20.8708
 1-4 NB =        11.6168  1-4 EEL =        37.4084  VDWAALS    =       131.5104
 EELEC  =       178.5417  EHBOND  =         0.0000  RESTRAINT  =         0.0000
 EKCMT  =        71.0089  VIRIAL  =       894.2540  VOLUME     =       464.2735
                                                    Density    =         0.0014
 ------------------------------------------------------------------------------
