-------------------------------------------------------
          Amber 24 PMEMD                              2024
          -------------------------------------------------------

  [-O]verwriting output

File Assignments:

 Here is the input file:

md 5 ns temp = 300 P=cte (ntb=2,ntp=1) No restraints
&cntrl
 nstlim = 15000000, dt = 0.002,
 ntx = 5, irest = 1, cut = 9.0, ioutfm = 1,
 ntpr = 50000, ntwr = 50000, ntwx = 50000,
 iwrap = 1,
 tempi = 300., temp0 = 300.,
 ntt = 1,
 ntb = 2, ntp = 1,
 ntc = 2, ntf = 2,
 ntr = 0,
&end

Note: ig = -1. Setting random seed to   727685 based on wallclock time in
      microseconds.

--------------------------------------------------------------------------------
   1.  RESOURCE   USE:
--------------------------------------------------------------------------------

 getting box info from netcdf restart file
 NATOM  =   34150 NTYPES =      16 NBONH =   32333 MBONA  =    1856
 NTHETH =    4021 MTHETA =    2510 NPHIH =    8146 MPHIA  =    7859
 NHPARM =       0 NPARM  =       0 NNB   =   60513 NRES   =   10422
 NBONA  =    1856 NTHETA =    2510 NPHIA =    7859 NUMBND =      78
 NUMANG =     179 NPTRA  =     199 NATYP =      39 NPHB   =       0
 IFBOX  =       1 NMXRS  =      30 IFCAP =       0 NEXTRA =       0
 NCOPY  =       0

     BOX TYPE: RECTILINEAR

--------------------------------------------------------------------------------
   2.  CONTROL  DATA  FOR  THE  RUN
--------------------------------------------------------------------------------

default_name

General flags:
     imin    =       0, nmropt  =       0

Nature and format of input:
     ntx     =       5, irest   =       1, ntrx    =       1

Nature and format of output:
     ntxo    =       2, ntpr    =   50000, ntrx    =       1, ntwr    =   50000
     iwrap   =       1, ntwx    =   50000, ntwv    =       0, ntwe    =       0
     ioutfm  =       1, ntwprt  =       0, idecomp =       0, rbornstat=      0

Potential function:
     ntf     =       2, ntb     =       2, igb     =       0, nsnb    =      25
     ipol    =       0, gbsa    =       0, iesp    =       0
     dielc   =   1.00000, cut     =   9.00000, intdiel =   1.00000

Frozen or restrained atoms:
     ibelly  =       0, ntr     =       0

Molecular dynamics:
     nstlim  =  15000000, nscm    =      1000, nrespa  =         1
     t       =   0.00000, dt      =   0.00200, vlimit  =  -1.00000

Berendsen (weak-coupling) temperature regulation:
     temp0   = 300.00000, tempi   = 300.00000, tautp   =   1.00000

Pressure regulation:
     ntp     =       1
     pres0   =   1.00000, comp    =  44.60000, taup    =   1.00000

SHAKE:
     ntc     =       2, jfastw  =       0
     tol     =   0.00001

Ewald parameters:
     verbose =       0, ew_type =       0, nbflag  =       1, use_pme =       1
     vdwmeth =       1, eedmeth =       1, netfrc  =       1
     Box X =   79.195   Box Y =   67.802   Box Z =   63.450
     Alpha =   90.000   Beta  =   90.000   Gamma =   90.000
     NFFT1 =   80       NFFT2 =   64       NFFT3 =   64
     Cutoff=    9.000   Tol   =0.100E-04
     Ewald Coefficient =  0.30768
     Interpolation order =    4

--------------------------------------------------------------------------------
   3.  ATOMIC COORDINATES AND VELOCITIES
--------------------------------------------------------------------------------

default_name
 begin time read from input coords = 90110.000 ps

 Number of triangulated 3-point waters found:    10191

     Sum of charges from parm topology file =  -0.00000110
     Forcing neutrality...

--------------------------------------------------------------------------------
   4.  RESULTS
 NSTEP =    50000   TIME(PS) =   90210.000  TEMP(K) =   299.40  PRESS =  -163.4
 Etot   =    -82929.3654  EKtot   =     20857.4336  EPtot      =   -103786.7989
 BOND   =       667.4735  ANGLE   =      1848.3240  DIHED      =      2803.0310
 1-4 NB =       804.9905  1-4 EEL =     10681.5004  VDWAALS    =     12224.3036
 EELEC  =   -132816.4219  EHBOND  =         0.0000  RESTRAINT  =         0.0000
 EKCMT  =      9123.8484  VIRIAL  =     10326.6461  VOLUME     =    340835.8487
                                                    Density    =         1.0200
 ------------------------------------------------------------------------------

      A V E R A G E S   O V E R     300 S T E P S

 NSTEP = 15000000   TIME(PS) =  120110.000  TEMP(K) =   299.76  PRESS =    -8.9
 Etot   =    -82951.6963  EKtot   =     20882.7111  EPtot      =   -103834.4074
 BOND   =       672.9835  ANGLE   =      1875.4377  DIHED      =      2818.8587
 1-4 NB =       804.3497  1-4 EEL =     10627.6272  VDWAALS    =     12342.5887
 EELEC  =   -132976.2529  EHBOND  =         0.0000  RESTRAINT  =         0.0000
 EKCMT  =      9176.3462  VIRIAL  =      9241.8643  VOLUME     =    340888.4049
                                                    Density    =         1.0199
 ------------------------------------------------------------------------------

      R M S  F L U C T U A T I O N S

 NSTEP = 15000000   TIME(PS) =  120110.000  TEMP(K) =     1.31  PRESS =   126.2
 Etot   =        46.5287  EKtot   =        91.2130  EPtot      =        99.0787
 BOND   =        20.8265  ANGLE   =        31.6835  DIHED      =        18.8340
 1-4 NB =        11.6724  1-4 EEL =        42.5812  VDWAALS    =       129.3233
 EELEC  =       188.5276  EHBOND  =         0.0000  RESTRAINT  =         0.0000
 EKCMT  =        69.1726  VIRIAL  =       931.0996  VOLUME     =       472.2459
                                                    Density    =         0.0014
 ------------------------------------------------------------------------------
