-------------------------------------------------------
          Amber 24 PMEMD                              2024
          -------------------------------------------------------

  [-O]verwriting output

File Assignments:

 Here is the input file:

md 5 ns temp = 300 P=cte (ntb=2,ntp=1) No restraints
&cntrl
 nstlim = 15000000, dt = 0.002,
 ntx = 5, irest = 1, cut = 9.0, ioutfm = 1,
 ntpr = 50000, ntwr = 50000, ntwx = 50000,
 iwrap = 1,
 tempi = 300., temp0 = 300.,
 ntt = 1,
 ntb = 2, ntp = 1,
 ntc = 2, ntf = 2,
 ntr = 0,
&end

Note: ig = -1. Setting random seed to   993951 based on wallclock time in
      microseconds.

--------------------------------------------------------------------------------
   1.  RESOURCE   USE:
--------------------------------------------------------------------------------

 getting box info from netcdf restart file
 NATOM  =   34150 NTYPES =      16 NBONH =   32333 MBONA  =    1856
 NTHETH =    4021 MTHETA =    2510 NPHIH =    8146 MPHIA  =    7859
 NHPARM =       0 NPARM  =       0 NNB   =   60513 NRES   =   10422
 NBONA  =    1856 NTHETA =    2510 NPHIA =    7859 NUMBND =      78
 NUMANG =     179 NPTRA  =     199 NATYP =      39 NPHB   =       0
 IFBOX  =       1 NMXRS  =      30 IFCAP =       0 NEXTRA =       0
 NCOPY  =       0

     BOX TYPE: RECTILINEAR

--------------------------------------------------------------------------------
   2.  CONTROL  DATA  FOR  THE  RUN
--------------------------------------------------------------------------------

default_name

General flags:
     imin    =       0, nmropt  =       0

Nature and format of input:
     ntx     =       5, irest   =       1, ntrx    =       1

Nature and format of output:
     ntxo    =       2, ntpr    =   50000, ntrx    =       1, ntwr    =   50000
     iwrap   =       1, ntwx    =   50000, ntwv    =       0, ntwe    =       0
     ioutfm  =       1, ntwprt  =       0, idecomp =       0, rbornstat=      0

Potential function:
     ntf     =       2, ntb     =       2, igb     =       0, nsnb    =      25
     ipol    =       0, gbsa    =       0, iesp    =       0
     dielc   =   1.00000, cut     =   9.00000, intdiel =   1.00000

Frozen or restrained atoms:
     ibelly  =       0, ntr     =       0

Molecular dynamics:
     nstlim  =  15000000, nscm    =      1000, nrespa  =         1
     t       =   0.00000, dt      =   0.00200, vlimit  =  -1.00000

Berendsen (weak-coupling) temperature regulation:
     temp0   = 300.00000, tempi   = 300.00000, tautp   =   1.00000

Pressure regulation:
     ntp     =       1
     pres0   =   1.00000, comp    =  44.60000, taup    =   1.00000

SHAKE:
     ntc     =       2, jfastw  =       0
     tol     =   0.00001

Ewald parameters:
     verbose =       0, ew_type =       0, nbflag  =       1, use_pme =       1
     vdwmeth =       1, eedmeth =       1, netfrc  =       1
     Box X =   79.197   Box Y =   67.804   Box Z =   63.452
     Alpha =   90.000   Beta  =   90.000   Gamma =   90.000
     NFFT1 =   80       NFFT2 =   64       NFFT3 =   64
     Cutoff=    9.000   Tol   =0.100E-04
     Ewald Coefficient =  0.30768
     Interpolation order =    4

--------------------------------------------------------------------------------
   3.  ATOMIC COORDINATES AND VELOCITIES
--------------------------------------------------------------------------------

default_name
 begin time read from input coords =120110.000 ps

 Number of triangulated 3-point waters found:    10191

     Sum of charges from parm topology file =  -0.00000110
     Forcing neutrality...

--------------------------------------------------------------------------------
   4.  RESULTS
 NSTEP =    50000   TIME(PS) =  120210.000  TEMP(K) =   299.09  PRESS =    96.8
 Etot   =    -82952.3280  EKtot   =     20835.8047  EPtot      =   -103788.1327
 BOND   =       689.6063  ANGLE   =      1870.0201  DIHED      =      2848.6991
 1-4 NB =       786.8341  1-4 EEL =     10636.0430  VDWAALS    =     12471.1203
 EELEC  =   -133090.4556  EHBOND  =         0.0000  RESTRAINT  =         0.0000
 EKCMT  =      9075.1159  VIRIAL  =      8363.1935  VOLUME     =    340736.7367
                                                    Density    =         1.0203
 ------------------------------------------------------------------------------

      A V E R A G E S   O V E R     300 S T E P S

 NSTEP = 15000000   TIME(PS) =  150110.000  TEMP(K) =   299.75  PRESS =   -15.3
 Etot   =    -82958.0480  EKtot   =     20881.8500  EPtot      =   -103839.8980
 BOND   =       671.9314  ANGLE   =      1869.9083  DIHED      =      2815.9719
 1-4 NB =       803.8834  1-4 EEL =     10635.3413  VDWAALS    =     12336.1774
 EELEC  =   -132973.1116  EHBOND  =         0.0000  RESTRAINT  =         0.0000
 EKCMT  =      9184.0562  VIRIAL  =      9296.4760  VOLUME     =    340891.0110
                                                    Density    =         1.0199
 ------------------------------------------------------------------------------

      R M S  F L U C T U A T I O N S

 NSTEP = 15000000   TIME(PS) =  150110.000  TEMP(K) =     1.24  PRESS =   133.7
 Etot   =        39.1732  EKtot   =        86.4344  EPtot      =        96.5236
 BOND   =        20.4188  ANGLE   =        33.0306  DIHED      =        18.0478
 1-4 NB =        11.0921  1-4 EEL =        39.8213  VDWAALS    =       141.7131
 EELEC  =       195.2730  EHBOND  =         0.0000  RESTRAINT  =         0.0000
 EKCMT  =        68.7993  VIRIAL  =       987.1643  VOLUME     =       437.9643
                                                    Density    =         0.0013
 ------------------------------------------------------------------------------
