-------------------------------------------------------
          Amber 24 PMEMD                              2024
          -------------------------------------------------------

  [-O]verwriting output

File Assignments:

 Here is the input file:

md 5 ns temp = 300 P=cte (ntb=2,ntp=1) No restraints
&cntrl
 nstlim = 15000000, dt = 0.002,
 ntx = 5, irest = 1, cut = 9.0, ioutfm = 1,
 ntpr = 50000, ntwr = 50000, ntwx = 50000,
 iwrap = 1,
 tempi = 300., temp0 = 300.,
 ntt = 1,
 ntb = 2, ntp = 1,
 ntc = 2, ntf = 2,
 ntr = 0,
&end

Note: ig = -1. Setting random seed to   880504 based on wallclock time in
      microseconds.

--------------------------------------------------------------------------------
   1.  RESOURCE   USE:
--------------------------------------------------------------------------------

 getting box info from netcdf restart file
 NATOM  =   34150 NTYPES =      16 NBONH =   32333 MBONA  =    1856
 NTHETH =    4021 MTHETA =    2510 NPHIH =    8146 MPHIA  =    7859
 NHPARM =       0 NPARM  =       0 NNB   =   60513 NRES   =   10422
 NBONA  =    1856 NTHETA =    2510 NPHIA =    7859 NUMBND =      78
 NUMANG =     179 NPTRA  =     199 NATYP =      39 NPHB   =       0
 IFBOX  =       1 NMXRS  =      30 IFCAP =       0 NEXTRA =       0
 NCOPY  =       0

     BOX TYPE: RECTILINEAR

--------------------------------------------------------------------------------
   2.  CONTROL  DATA  FOR  THE  RUN
--------------------------------------------------------------------------------

default_name

General flags:
     imin    =       0, nmropt  =       0

Nature and format of input:
     ntx     =       5, irest   =       1, ntrx    =       1

Nature and format of output:
     ntxo    =       2, ntpr    =   50000, ntrx    =       1, ntwr    =   50000
     iwrap   =       1, ntwx    =   50000, ntwv    =       0, ntwe    =       0
     ioutfm  =       1, ntwprt  =       0, idecomp =       0, rbornstat=      0

Potential function:
     ntf     =       2, ntb     =       2, igb     =       0, nsnb    =      25
     ipol    =       0, gbsa    =       0, iesp    =       0
     dielc   =   1.00000, cut     =   9.00000, intdiel =   1.00000

Frozen or restrained atoms:
     ibelly  =       0, ntr     =       0

Molecular dynamics:
     nstlim  =  15000000, nscm    =      1000, nrespa  =         1
     t       =   0.00000, dt      =   0.00200, vlimit  =  -1.00000

Berendsen (weak-coupling) temperature regulation:
     temp0   = 300.00000, tempi   = 300.00000, tautp   =   1.00000

Pressure regulation:
     ntp     =       1
     pres0   =   1.00000, comp    =  44.60000, taup    =   1.00000

SHAKE:
     ntc     =       2, jfastw  =       0
     tol     =   0.00001

Ewald parameters:
     verbose =       0, ew_type =       0, nbflag  =       1, use_pme =       1
     vdwmeth =       1, eedmeth =       1, netfrc  =       1
     Box X =   79.229   Box Y =   67.831   Box Z =   63.477
     Alpha =   90.000   Beta  =   90.000   Gamma =   90.000
     NFFT1 =   80       NFFT2 =   64       NFFT3 =   64
     Cutoff=    9.000   Tol   =0.100E-04
     Ewald Coefficient =  0.30768
     Interpolation order =    4

--------------------------------------------------------------------------------
   3.  ATOMIC COORDINATES AND VELOCITIES
--------------------------------------------------------------------------------

default_name
 begin time read from input coords = 30110.000 ps

 Number of triangulated 3-point waters found:    10191

     Sum of charges from parm topology file =  -0.00000110
     Forcing neutrality...

--------------------------------------------------------------------------------
   4.  RESULTS
 NSTEP =    50000   TIME(PS) =   30210.000  TEMP(K) =   300.80  PRESS =  -199.1
 Etot   =    -82882.7313  EKtot   =     20955.0469  EPtot      =   -103837.7782
 BOND   =       642.5631  ANGLE   =      1841.5947  DIHED      =      2860.0472
 1-4 NB =       806.2845  1-4 EEL =     10612.1957  VDWAALS    =     12126.0717
 EELEC  =   -132726.5349  EHBOND  =         0.0000  RESTRAINT  =         0.0000
 EKCMT  =      9231.3064  VIRIAL  =     10698.3736  VOLUME     =    341278.8247
                                                    Density    =         1.0187
 ------------------------------------------------------------------------------

      A V E R A G E S   O V E R     300 S T E P S

 NSTEP = 15000000   TIME(PS) =   60110.000  TEMP(K) =   300.03  PRESS =    -6.3
 Etot   =    -82955.3591  EKtot   =     20901.7120  EPtot      =   -103857.0710
 BOND   =       672.3452  ANGLE   =      1871.4715  DIHED      =      2812.2833
 1-4 NB =       803.4005  1-4 EEL =     10600.6779  VDWAALS    =     12333.0726
 EELEC  =   -132950.3221  EHBOND  =         0.0000  RESTRAINT  =         0.0000
 EKCMT  =      9184.6403  VIRIAL  =      9230.8811  VOLUME     =    340922.6808
                                                    Density    =         1.0198
 ------------------------------------------------------------------------------

      R M S  F L U C T U A T I O N S

 NSTEP = 15000000   TIME(PS) =   60110.000  TEMP(K) =     1.28  PRESS =   123.3
 Etot   =        43.4001  EKtot   =        88.8838  EPtot      =        98.4325
 BOND   =        22.3739  ANGLE   =        32.2668  DIHED      =        19.7424
 1-4 NB =        10.8752  1-4 EEL =        39.7018  VDWAALS    =       130.9164
 EELEC  =       187.6224  EHBOND  =         0.0000  RESTRAINT  =         0.0000
 EKCMT  =        66.0084  VIRIAL  =       908.6048  VOLUME     =       445.8538
                                                    Density    =         0.0013
 ------------------------------------------------------------------------------
