-------------------------------------------------------
          Amber 24 PMEMD                              2024
          -------------------------------------------------------

  [-O]verwriting output

File Assignments:

 Here is the input file:

calentamiento 100 --> 300 k = 20 V=cte (ntb=1)
&cntrl
 nstlim = 10000, dt = 0.002, cut = 9., ioutfm = 1,
 ntx = 1, irest = 0, iwrap=0,
 ntpr = 500, ntwr = 500, ntwx = 500,
 tempi = 100.0, temp0 = 300.0,
 ntt = 1,
 ntb = 1,
 ntc = 2, ntf = 2,
 ntr = 1, restraint_wt = 5.0, restraintmask = ":1-225@CA"
&end
&wt
type="END",
&end

Note: ig = -1. Setting random seed to   596791 based on wallclock time in
      microseconds.

--------------------------------------------------------------------------------
   1.  RESOURCE   USE:
--------------------------------------------------------------------------------

 getting box info from netcdf restart file
 NATOM  =   34150 NTYPES =      16 NBONH =   32333 MBONA  =    1856
 NTHETH =    4021 MTHETA =    2510 NPHIH =    8146 MPHIA  =    7859
 NHPARM =       0 NPARM  =       0 NNB   =   60513 NRES   =   10422
 NBONA  =    1856 NTHETA =    2510 NPHIA =    7859 NUMBND =      78
 NUMANG =     179 NPTRA  =     199 NATYP =      39 NPHB   =       0
 IFBOX  =       1 NMXRS  =      30 IFCAP =       0 NEXTRA =       0
 NCOPY  =       0

     BOX TYPE: RECTILINEAR

--------------------------------------------------------------------------------
   2.  CONTROL  DATA  FOR  THE  RUN
--------------------------------------------------------------------------------

default_name

General flags:
     imin    =       0, nmropt  =       0

Nature and format of input:
     ntx     =       1, irest   =       0, ntrx    =       1

Nature and format of output:
     ntxo    =       2, ntpr    =     500, ntrx    =       1, ntwr    =     500
     iwrap   =       0, ntwx    =     500, ntwv    =       0, ntwe    =       0
     ioutfm  =       1, ntwprt  =       0, idecomp =       0, rbornstat=      0

Potential function:
     ntf     =       2, ntb     =       1, igb     =       0, nsnb    =      25
     ipol    =       0, gbsa    =       0, iesp    =       0
     dielc   =   1.00000, cut     =   9.00000, intdiel =   1.00000

Frozen or restrained atoms:
     ibelly  =       0, ntr     =       1
     restraint_wt =   5.00000

Molecular dynamics:
     nstlim  =     10000, nscm    =         0, nrespa  =         1
     t       =   0.00000, dt      =   0.00200, vlimit  =  -1.00000

Berendsen (weak-coupling) temperature regulation:
     temp0   = 300.00000, tempi   = 100.00000, tautp   =   1.00000

SHAKE:
     ntc     =       2, jfastw  =       0
     tol     =   0.00001

Ewald parameters:
     verbose =       0, ew_type =       0, nbflag  =       1, use_pme =       1
     vdwmeth =       1, eedmeth =       1, netfrc  =       1
     Box X =   85.219   Box Y =   72.959   Box Z =   68.277
     Alpha =   90.000   Beta  =   90.000   Gamma =   90.000
     NFFT1 =   96       NFFT2 =   80       NFFT3 =   72
     Cutoff=    9.000   Tol   =0.100E-04
     Ewald Coefficient =  0.30768
     Interpolation order =    4

    LOADING THE CONSTRAINED ATOMS AS GROUPS

   5.  REFERENCE ATOM COORDINATES

  default_name
     Mask :1-225@CA; matches   224 atoms

--------------------------------------------------------------------------------
   3.  ATOMIC COORDINATES AND VELOCITIES
--------------------------------------------------------------------------------

default_name
 begin time read from input coords =     0.000 ps

 Number of triangulated 3-point waters found:    10191

     Sum of charges from parm topology file =  -0.00000110
     Forcing neutrality...

--------------------------------------------------------------------------------
   4.  RESULTS
 NSTEP =        0   TIME(PS) =       0.000  TEMP(K) =   145.91  PRESS =     0.0
 Etot   =   -138847.9409  EKtot   =     10164.9625  EPtot      =   -149012.9034
 BOND   =        94.7528  ANGLE   =       522.9165  DIHED      =      2594.8849
 1-4 NB =       735.5509  1-4 EEL =     10800.7255  VDWAALS    =     29764.6268
 EELEC  =   -193526.3609  EHBOND  =         0.0000  RESTRAINT  =         0.0000
 ------------------------------------------------------------------------------

      A V E R A G E S   O V E R      20 S T E P S

 NSTEP =    10000   TIME(PS) =      20.000  TEMP(K) =   277.36  PRESS =     0.0
 Etot   =    -84698.2032  EKtot   =     19323.1426  EPtot      =   -104021.3458
 BOND   =       649.9225  ANGLE   =      1801.1032  DIHED      =      2885.9822
 1-4 NB =       819.8738  1-4 EEL =     10759.1021  VDWAALS    =     13185.7283
 EELEC  =   -134192.0963  EHBOND  =         0.0000  RESTRAINT  =        69.0383
 EAMBER (non-restraint)  =   -104090.3841
 ------------------------------------------------------------------------------

      R M S  F L U C T U A T I O N S

 NSTEP =    10000   TIME(PS) =      20.000  TEMP(K) =    38.35  PRESS =     0.0
 Etot   =      6768.1134  EKtot   =      2672.0394  EPtot      =      4100.8971
 BOND   =        90.6379  ANGLE   =       208.4564  DIHED      =        43.2911
 1-4 NB =        19.4572  1-4 EEL =        40.9339  VDWAALS    =      1524.5580
 EELEC  =      5273.7499  EHBOND  =         0.0000  RESTRAINT  =         6.6064
 EAMBER (non-restraint)  =      4094.2907
 ------------------------------------------------------------------------------
