-------------------------------------------------------
          Amber 24 PMEMD                              2024
          -------------------------------------------------------

  [-O]verwriting output

File Assignments:

 Here is the input file:

md 5 ns temp = 300 P=cte (ntb=2,ntp=1) No restraints
&cntrl
 nstlim = 15000000, dt = 0.002,
 ntx = 5, irest = 1, cut = 9.0, ioutfm = 1,
 ntpr = 50000, ntwr = 50000, ntwx = 50000,
 iwrap = 1,
 tempi = 300., temp0 = 300.,
 ntt = 1,
 ntb = 2, ntp = 1,
 ntc = 2, ntf = 2,
 ntr = 0,
&end

Note: ig = -1. Setting random seed to   389917 based on wallclock time in
      microseconds.

--------------------------------------------------------------------------------
   1.  RESOURCE   USE:
--------------------------------------------------------------------------------

 getting box info from netcdf restart file
 NATOM  =   34150 NTYPES =      16 NBONH =   32333 MBONA  =    1856
 NTHETH =    4021 MTHETA =    2510 NPHIH =    8146 MPHIA  =    7859
 NHPARM =       0 NPARM  =       0 NNB   =   60513 NRES   =   10422
 NBONA  =    1856 NTHETA =    2510 NPHIA =    7859 NUMBND =      78
 NUMANG =     179 NPTRA  =     199 NATYP =      39 NPHB   =       0
 IFBOX  =       1 NMXRS  =      30 IFCAP =       0 NEXTRA =       0
 NCOPY  =       0

     BOX TYPE: RECTILINEAR

--------------------------------------------------------------------------------
   2.  CONTROL  DATA  FOR  THE  RUN
--------------------------------------------------------------------------------

default_name

General flags:
     imin    =       0, nmropt  =       0

Nature and format of input:
     ntx     =       5, irest   =       1, ntrx    =       1

Nature and format of output:
     ntxo    =       2, ntpr    =   50000, ntrx    =       1, ntwr    =   50000
     iwrap   =       1, ntwx    =   50000, ntwv    =       0, ntwe    =       0
     ioutfm  =       1, ntwprt  =       0, idecomp =       0, rbornstat=      0

Potential function:
     ntf     =       2, ntb     =       2, igb     =       0, nsnb    =      25
     ipol    =       0, gbsa    =       0, iesp    =       0
     dielc   =   1.00000, cut     =   9.00000, intdiel =   1.00000

Frozen or restrained atoms:
     ibelly  =       0, ntr     =       0

Molecular dynamics:
     nstlim  =  15000000, nscm    =      1000, nrespa  =         1
     t       =   0.00000, dt      =   0.00200, vlimit  =  -1.00000

Berendsen (weak-coupling) temperature regulation:
     temp0   = 300.00000, tempi   = 300.00000, tautp   =   1.00000

Pressure regulation:
     ntp     =       1
     pres0   =   1.00000, comp    =  44.60000, taup    =   1.00000

SHAKE:
     ntc     =       2, jfastw  =       0
     tol     =   0.00001

Ewald parameters:
     verbose =       0, ew_type =       0, nbflag  =       1, use_pme =       1
     vdwmeth =       1, eedmeth =       1, netfrc  =       1
     Box X =   79.191   Box Y =   67.799   Box Z =   63.447
     Alpha =   90.000   Beta  =   90.000   Gamma =   90.000
     NFFT1 =   80       NFFT2 =   64       NFFT3 =   64
     Cutoff=    9.000   Tol   =0.100E-04
     Ewald Coefficient =  0.30768
     Interpolation order =    4

--------------------------------------------------------------------------------
   3.  ATOMIC COORDINATES AND VELOCITIES
--------------------------------------------------------------------------------

default_name
 begin time read from input coords =150110.000 ps

 Number of triangulated 3-point waters found:    10191

     Sum of charges from parm topology file =  -0.00000110
     Forcing neutrality...

--------------------------------------------------------------------------------
   4.  RESULTS
 NSTEP =    50000   TIME(PS) =  150210.000  TEMP(K) =   302.64  PRESS =   -84.4
 Etot   =    -82977.7182  EKtot   =     21083.4609  EPtot      =   -104061.1791
 BOND   =       663.6137  ANGLE   =      1876.9907  DIHED      =      2805.7176
 1-4 NB =       803.8785  1-4 EEL =     10585.5834  VDWAALS    =     12447.9409
 EELEC  =   -133244.9039  EHBOND  =         0.0000  RESTRAINT  =         0.0000
 EKCMT  =      9237.5012  VIRIAL  =      9858.4455  VOLUME     =    340931.2260
                                                    Density    =         1.0197
 ------------------------------------------------------------------------------

      A V E R A G E S   O V E R     300 S T E P S

 NSTEP = 15000000   TIME(PS) =  180110.000  TEMP(K) =   299.91  PRESS =    -0.3
 Etot   =    -82956.4129  EKtot   =     20892.9562  EPtot      =   -103849.3691
 BOND   =       672.0056  ANGLE   =      1868.3236  DIHED      =      2817.8533
 1-4 NB =       800.7586  1-4 EEL =     10634.0738  VDWAALS    =     12339.5220
 EELEC  =   -132981.9060  EHBOND  =         0.0000  RESTRAINT  =         0.0000
 EKCMT  =      9183.0566  VIRIAL  =      9185.3575  VOLUME     =    340927.7049
                                                    Density    =         1.0198
 ------------------------------------------------------------------------------

      R M S  F L U C T U A T I O N S

 NSTEP = 15000000   TIME(PS) =  180110.000  TEMP(K) =     1.23  PRESS =   129.7
 Etot   =        42.7048  EKtot   =        85.8955  EPtot      =       100.8402
 BOND   =        21.3943  ANGLE   =        31.0748  DIHED      =        19.4034
 1-4 NB =        12.4554  1-4 EEL =        41.7387  VDWAALS    =       138.8635
 EELEC  =       195.1413  EHBOND  =         0.0000  RESTRAINT  =         0.0000
 EKCMT  =        67.5027  VIRIAL  =       961.6030  VOLUME     =       429.1758
                                                    Density    =         0.0013
 ------------------------------------------------------------------------------
