-------------------------------------------------------
          Amber 24 PMEMD                              2024
          -------------------------------------------------------

  [-O]verwriting output

File Assignments:

 Here is the input file:

md 5 ns temp = 300 P=cte (ntb=2,ntp=1) No restraints
&cntrl
 nstlim = 15000000, dt = 0.002,
 ntx = 5, irest = 1, cut = 9.0, ioutfm = 1,
 ntpr = 50000, ntwr = 50000, ntwx = 50000,
 iwrap = 1,
 tempi = 300., temp0 = 300.,
 ntt = 1,
 ntb = 2, ntp = 1,
 ntc = 2, ntf = 2,
 ntr = 0,
&end

Note: ig = -1. Setting random seed to    21764 based on wallclock time in
      microseconds.

--------------------------------------------------------------------------------
   1.  RESOURCE   USE:
--------------------------------------------------------------------------------

 getting box info from netcdf restart file
 NATOM  =   34150 NTYPES =      16 NBONH =   32333 MBONA  =    1856
 NTHETH =    4021 MTHETA =    2510 NPHIH =    8146 MPHIA  =    7859
 NHPARM =       0 NPARM  =       0 NNB   =   60513 NRES   =   10422
 NBONA  =    1856 NTHETA =    2510 NPHIA =    7859 NUMBND =      78
 NUMANG =     179 NPTRA  =     199 NATYP =      39 NPHB   =       0
 IFBOX  =       1 NMXRS  =      30 IFCAP =       0 NEXTRA =       0
 NCOPY  =       0

     BOX TYPE: RECTILINEAR

--------------------------------------------------------------------------------
   2.  CONTROL  DATA  FOR  THE  RUN
--------------------------------------------------------------------------------

default_name

General flags:
     imin    =       0, nmropt  =       0

Nature and format of input:
     ntx     =       5, irest   =       1, ntrx    =       1

Nature and format of output:
     ntxo    =       2, ntpr    =   50000, ntrx    =       1, ntwr    =   50000
     iwrap   =       1, ntwx    =   50000, ntwv    =       0, ntwe    =       0
     ioutfm  =       1, ntwprt  =       0, idecomp =       0, rbornstat=      0

Potential function:
     ntf     =       2, ntb     =       2, igb     =       0, nsnb    =      25
     ipol    =       0, gbsa    =       0, iesp    =       0
     dielc   =   1.00000, cut     =   9.00000, intdiel =   1.00000

Frozen or restrained atoms:
     ibelly  =       0, ntr     =       0

Molecular dynamics:
     nstlim  =  15000000, nscm    =      1000, nrespa  =         1
     t       =   0.00000, dt      =   0.00200, vlimit  =  -1.00000

Berendsen (weak-coupling) temperature regulation:
     temp0   = 300.00000, tempi   = 300.00000, tautp   =   1.00000

Pressure regulation:
     ntp     =       1
     pres0   =   1.00000, comp    =  44.60000, taup    =   1.00000

SHAKE:
     ntc     =       2, jfastw  =       0
     tol     =   0.00001

Ewald parameters:
     verbose =       0, ew_type =       0, nbflag  =       1, use_pme =       1
     vdwmeth =       1, eedmeth =       1, netfrc  =       1
     Box X =   79.174   Box Y =   67.784   Box Z =   63.434
     Alpha =   90.000   Beta  =   90.000   Gamma =   90.000
     NFFT1 =   80       NFFT2 =   64       NFFT3 =   64
     Cutoff=    9.000   Tol   =0.100E-04
     Ewald Coefficient =  0.30768
     Interpolation order =    4

--------------------------------------------------------------------------------
   3.  ATOMIC COORDINATES AND VELOCITIES
--------------------------------------------------------------------------------

default_name
 begin time read from input coords =180110.000 ps

 Number of triangulated 3-point waters found:    10191

     Sum of charges from parm topology file =  -0.00000110
     Forcing neutrality...

--------------------------------------------------------------------------------
   4.  RESULTS
 NSTEP =    50000   TIME(PS) =  180210.000  TEMP(K) =   298.85  PRESS =  -104.5
 Etot   =    -82918.4275  EKtot   =     20819.2305  EPtot      =   -103737.6579
 BOND   =       662.4663  ANGLE   =      1834.8099  DIHED      =      2837.2324
 1-4 NB =       796.2178  1-4 EEL =     10657.9272  VDWAALS    =     12483.3938
 EELEC  =   -133009.7052  EHBOND  =         0.0000  RESTRAINT  =         0.0000
 EKCMT  =      9222.7288  VIRIAL  =      9991.7666  VOLUME     =    340963.8528
                                                    Density    =         1.0196
 ------------------------------------------------------------------------------

      A V E R A G E S   O V E R     300 S T E P S

 NSTEP = 15000000   TIME(PS) =  210110.000  TEMP(K) =   299.98  PRESS =     6.8
 Etot   =    -82959.8701  EKtot   =     20898.2032  EPtot      =   -103858.0733
 BOND   =       673.8092  ANGLE   =      1874.3283  DIHED      =      2816.7942
 1-4 NB =       803.4220  1-4 EEL =     10625.8299  VDWAALS    =     12342.0562
 EELEC  =   -132994.3132  EHBOND  =         0.0000  RESTRAINT  =         0.0000
 EKCMT  =      9186.5324  VIRIAL  =      9136.8044  VOLUME     =    340861.2912
                                                    Density    =         1.0200
 ------------------------------------------------------------------------------

      R M S  F L U C T U A T I O N S

 NSTEP = 15000000   TIME(PS) =  210110.000  TEMP(K) =     1.26  PRESS =   130.2
 Etot   =        42.0132  EKtot   =        87.5566  EPtot      =        97.8860
 BOND   =        21.2892  ANGLE   =        30.3177  DIHED      =        19.8306
 1-4 NB =        11.1763  1-4 EEL =        38.9308  VDWAALS    =       140.1024
 EELEC  =       182.3488  EHBOND  =         0.0000  RESTRAINT  =         0.0000
 EKCMT  =        69.7568  VIRIAL  =       964.4497  VOLUME     =       423.4839
                                                    Density    =         0.0013
 ------------------------------------------------------------------------------
