-------------------------------------------------------
          Amber 24 PMEMD                              2024
          -------------------------------------------------------

  [-O]verwriting output

File Assignments:

 Here is the input file:

eq5 temp = 300, k = 1 P=cte (ntb=2, ntp=1)
&cntrl
 nstlim = 5000, dt = 0.002,
 ntx = 7, irest = 1, iwrap = 1, cut = 9.0, ioutfm = 1,
 ntpr = 1000, ntwr = 1000, ntwx = 1000,
 tempi = 300., temp0 = 300.,
 ntt = 1,
 ntb = 2, ntp = 1,
 ntc = 2, ntf = 2,
 ntr = 1, restraint_wt = 0.1, restraintmask = ":1-225@CA"
&end
&wt
type="END",
&end

Note: ig = -1. Setting random seed to   779378 based on wallclock time in
      microseconds.

--------------------------------------------------------------------------------
   1.  RESOURCE   USE:
--------------------------------------------------------------------------------

 getting box info from netcdf restart file
 NATOM  =   39744 NTYPES =      16 NBONH =   37937 MBONA  =    1844
 NTHETH =    3999 MTHETA =    2499 NPHIH =    8123 MPHIA  =    7877
 NHPARM =       0 NPARM  =       0 NNB   =   67903 NRES   =   12294
 NBONA  =    1844 NTHETA =    2499 NPHIA =    7877 NUMBND =      77
 NUMANG =     179 NPTRA  =     200 NATYP =      39 NPHB   =       0
 IFBOX  =       1 NMXRS  =      40 IFCAP =       0 NEXTRA =       0
 NCOPY  =       0

     BOX TYPE: RECTILINEAR

--------------------------------------------------------------------------------
   2.  CONTROL  DATA  FOR  THE  RUN
--------------------------------------------------------------------------------

default_name

General flags:
     imin    =       0, nmropt  =       0

Nature and format of input:
     ntx     =       7, irest   =       1, ntrx    =       1

Nature and format of output:
     ntxo    =       2, ntpr    =    1000, ntrx    =       1, ntwr    =    1000
     iwrap   =       1, ntwx    =    1000, ntwv    =       0, ntwe    =       0
     ioutfm  =       1, ntwprt  =       0, idecomp =       0, rbornstat=      0

Potential function:
     ntf     =       2, ntb     =       2, igb     =       0, nsnb    =      25
     ipol    =       0, gbsa    =       0, iesp    =       0
     dielc   =   1.00000, cut     =   9.00000, intdiel =   1.00000

Frozen or restrained atoms:
     ibelly  =       0, ntr     =       1
     restraint_wt =   0.10000

Molecular dynamics:
     nstlim  =      5000, nscm    =         0, nrespa  =         1
     t       =   0.00000, dt      =   0.00200, vlimit  =  -1.00000

Berendsen (weak-coupling) temperature regulation:
     temp0   = 300.00000, tempi   = 300.00000, tautp   =   1.00000

Pressure regulation:
     ntp     =       1
     pres0   =   1.00000, comp    =  44.60000, taup    =   1.00000

SHAKE:
     ntc     =       2, jfastw  =       0
     tol     =   0.00001

Ewald parameters:
     verbose =       0, ew_type =       0, nbflag  =       1, use_pme =       1
     vdwmeth =       1, eedmeth =       1, netfrc  =       1
     Box X =   71.755   Box Y =   81.320   Box Z =   83.256
     Alpha =   90.000   Beta  =   90.000   Gamma =   90.000
     NFFT1 =   72       NFFT2 =   84       NFFT3 =   84
     Cutoff=    9.000   Tol   =0.100E-04
     Ewald Coefficient =  0.30768
     Interpolation order =    4

    LOADING THE CONSTRAINED ATOMS AS GROUPS

   5.  REFERENCE ATOM COORDINATES

  default_name
     Mask :1-225@CA; matches   224 atoms

--------------------------------------------------------------------------------
   3.  ATOMIC COORDINATES AND VELOCITIES
--------------------------------------------------------------------------------

default_name
 begin time read from input coords =   100.000 ps

 Number of triangulated 3-point waters found:    12062

     Sum of charges from parm topology file =   0.00000190
     Forcing neutrality...

--------------------------------------------------------------------------------
   4.  RESULTS
 NSTEP =     1000   TIME(PS) =     102.000  TEMP(K) =   300.04  PRESS =  -237.8
 Etot   =    -95579.3005  EKtot   =     24235.2129  EPtot      =   -119814.5134
 BOND   =       661.3535  ANGLE   =      1901.8288  DIHED      =      2852.1419
 1-4 NB =       815.2547  1-4 EEL =     10665.0328  VDWAALS    =     15034.2659
 EELEC  =   -151754.8941  EHBOND  =         0.0000  RESTRAINT  =        10.5033
 EAMBER (non-restraint)  =   -119825.0167
 EKCMT  =     10872.2206  VIRIAL  =     13318.5161  VOLUME     =    476443.9435
                                                    Density    =         0.8467
 ------------------------------------------------------------------------------

      A V E R A G E S   O V E R       5 S T E P S

 NSTEP =     5000   TIME(PS) =     110.000  TEMP(K) =   300.64  PRESS =  -247.2
 Etot   =    -95932.4868  EKtot   =     24283.9410  EPtot      =   -120216.4278
 BOND   =       670.1023  ANGLE   =      1894.3241  DIHED      =      2862.8497
 1-4 NB =       799.3358  1-4 EEL =     10674.9612  VDWAALS    =     14942.8175
 EELEC  =   -152070.9754  EHBOND  =         0.0000  RESTRAINT  =        10.1570
 EAMBER (non-restraint)  =   -120226.5848
 EKCMT  =     10869.8915  VIRIAL  =     13296.5670  VOLUME     =    455335.4915
                                                    Density    =         0.8869
 ------------------------------------------------------------------------------

      R M S  F L U C T U A T I O N S

 NSTEP =     5000   TIME(PS) =     110.000  TEMP(K) =     0.90  PRESS =    70.7
 Etot   =       236.6931  EKtot   =        72.6668  EPtot      =       279.9674
 BOND   =        15.4079  ANGLE   =        30.2958  DIHED      =        14.5033
 1-4 NB =        15.6013  1-4 EEL =        37.0133  VDWAALS    =        70.9793
 EELEC  =       262.0364  EHBOND  =         0.0000  RESTRAINT  =         0.1964
 EAMBER (non-restraint)  =       279.7710
 EKCMT  =        51.2063  VIRIAL  =       696.1369  VOLUME     =     14974.7825
                                                    Density    =         0.0292
 ------------------------------------------------------------------------------
