-------------------------------------------------------
          Amber 24 PMEMD                              2024
          -------------------------------------------------------

  [-O]verwriting output

File Assignments:

 Here is the input file:

md 5 ns temp = 300 P=cte (ntb=2,ntp=1) No restraints
&cntrl
 nstlim = 15000000, dt = 0.002,
 ntx = 5, irest = 1, cut = 9.0, ioutfm = 1,
 ntpr = 50000, ntwr = 50000, ntwx = 50000,
 iwrap = 1,
 tempi = 300., temp0 = 300.,
 ntt = 1,
 ntb = 2, ntp = 1,
 ntc = 2, ntf = 2,
 ntr = 0,
&end

Note: ig = -1. Setting random seed to   666416 based on wallclock time in
      microseconds.

--------------------------------------------------------------------------------
   1.  RESOURCE   USE:
--------------------------------------------------------------------------------

 getting box info from netcdf restart file
 NATOM  =   39744 NTYPES =      16 NBONH =   37937 MBONA  =    1844
 NTHETH =    3999 MTHETA =    2499 NPHIH =    8123 MPHIA  =    7877
 NHPARM =       0 NPARM  =       0 NNB   =   67903 NRES   =   12294
 NBONA  =    1844 NTHETA =    2499 NPHIA =    7877 NUMBND =      77
 NUMANG =     179 NPTRA  =     200 NATYP =      39 NPHB   =       0
 IFBOX  =       1 NMXRS  =      40 IFCAP =       0 NEXTRA =       0
 NCOPY  =       0

     BOX TYPE: RECTILINEAR

--------------------------------------------------------------------------------
   2.  CONTROL  DATA  FOR  THE  RUN
--------------------------------------------------------------------------------

default_name

General flags:
     imin    =       0, nmropt  =       0

Nature and format of input:
     ntx     =       5, irest   =       1, ntrx    =       1

Nature and format of output:
     ntxo    =       2, ntpr    =   50000, ntrx    =       1, ntwr    =   50000
     iwrap   =       1, ntwx    =   50000, ntwv    =       0, ntwe    =       0
     ioutfm  =       1, ntwprt  =       0, idecomp =       0, rbornstat=      0

Potential function:
     ntf     =       2, ntb     =       2, igb     =       0, nsnb    =      25
     ipol    =       0, gbsa    =       0, iesp    =       0
     dielc   =   1.00000, cut     =   9.00000, intdiel =   1.00000

Frozen or restrained atoms:
     ibelly  =       0, ntr     =       0

Molecular dynamics:
     nstlim  =  15000000, nscm    =      1000, nrespa  =         1
     t       =   0.00000, dt      =   0.00200, vlimit  =  -1.00000

Berendsen (weak-coupling) temperature regulation:
     temp0   = 300.00000, tempi   = 300.00000, tautp   =   1.00000

Pressure regulation:
     ntp     =       1
     pres0   =   1.00000, comp    =  44.60000, taup    =   1.00000

SHAKE:
     ntc     =       2, jfastw  =       0
     tol     =   0.00001

Ewald parameters:
     verbose =       0, ew_type =       0, nbflag  =       1, use_pme =       1
     vdwmeth =       1, eedmeth =       1, netfrc  =       1
     Box X =   67.092   Box Y =   76.036   Box Z =   77.845
     Alpha =   90.000   Beta  =   90.000   Gamma =   90.000
     NFFT1 =   64       NFFT2 =   80       NFFT3 =   80
     Cutoff=    9.000   Tol   =0.100E-04
     Ewald Coefficient =  0.30768
     Interpolation order =    4

--------------------------------------------------------------------------------
   3.  ATOMIC COORDINATES AND VELOCITIES
--------------------------------------------------------------------------------

default_name
 begin time read from input coords = 90110.000 ps

 Number of triangulated 3-point waters found:    12062

     Sum of charges from parm topology file =   0.00000190
     Forcing neutrality...

--------------------------------------------------------------------------------
   4.  RESULTS
 NSTEP =    50000   TIME(PS) =   90210.000  TEMP(K) =   299.72  PRESS =    40.2
 Etot   =    -97367.9348  EKtot   =     24208.6934  EPtot      =   -121576.6281
 BOND   =       701.9746  ANGLE   =      1907.5105  DIHED      =      2830.9390
 1-4 NB =       792.1569  1-4 EEL =     10633.2116  VDWAALS    =     14929.2958
 EELEC  =   -153371.7165  EHBOND  =         0.0000  RESTRAINT  =         0.0000
 EKCMT  =     10949.6216  VIRIAL  =     10604.6286  VOLUME     =    397012.1790
                                                    Density    =         1.0161
 ------------------------------------------------------------------------------

      A V E R A G E S   O V E R     300 S T E P S

 NSTEP = 15000000   TIME(PS) =  120110.000  TEMP(K) =   300.12  PRESS =    -5.7
 Etot   =    -97337.8855  EKtot   =     24241.3460  EPtot      =   -121579.2315
 BOND   =       668.1639  ANGLE   =      1880.4407  DIHED      =      2818.3234
 1-4 NB =       796.9092  1-4 EEL =     10579.1621  VDWAALS    =     15004.5445
 EELEC  =   -153326.7752  EHBOND  =         0.0000  RESTRAINT  =         0.0000
 EKCMT  =     10869.8359  VIRIAL  =     10918.3664  VOLUME     =    397511.0364
                                                    Density    =         1.0148
 ------------------------------------------------------------------------------

      R M S  F L U C T U A T I O N S

 NSTEP = 15000000   TIME(PS) =  120110.000  TEMP(K) =     1.14  PRESS =   116.7
 Etot   =        47.1934  EKtot   =        92.3050  EPtot      =       104.0150
 BOND   =        21.7902  ANGLE   =        30.9099  DIHED      =        19.4465
 1-4 NB =        11.9883  1-4 EEL =        37.9793  VDWAALS    =       148.4629
 EELEC  =       197.1269  EHBOND  =         0.0000  RESTRAINT  =         0.0000
 EKCMT  =        75.8407  VIRIAL  =      1011.3288  VOLUME     =       441.1401
                                                    Density    =         0.0011
 ------------------------------------------------------------------------------
