-------------------------------------------------------
          Amber 24 PMEMD                              2024
          -------------------------------------------------------

  [-O]verwriting output

File Assignments:

 Here is the input file:

eq3 temp = 300, k = 5 V=cte (ntb=1)
&cntrl
 nstlim = 10000, dt = 0.002,
 ntx = 7, irest = 1, iwrap=0, cut = 9.0, ioutfm = 1,
 ntpr = 500, ntwr = 500, ntwx =500,
 tempi = 300., temp0 = 300.,
 ntt = 1,
 ntb = 1,
 ntc = 2, ntf = 2,
 ntr = 1,
 restraint_wt = 0.5, restraintmask = ":1-225@CA"
&end

Note: ig = -1. Setting random seed to   764319 based on wallclock time in
      microseconds.

--------------------------------------------------------------------------------
   1.  RESOURCE   USE:
--------------------------------------------------------------------------------

 getting box info from netcdf restart file
 NATOM  =   39744 NTYPES =      16 NBONH =   37937 MBONA  =    1844
 NTHETH =    3999 MTHETA =    2499 NPHIH =    8123 MPHIA  =    7877
 NHPARM =       0 NPARM  =       0 NNB   =   67903 NRES   =   12294
 NBONA  =    1844 NTHETA =    2499 NPHIA =    7877 NUMBND =      77
 NUMANG =     179 NPTRA  =     200 NATYP =      39 NPHB   =       0
 IFBOX  =       1 NMXRS  =      40 IFCAP =       0 NEXTRA =       0
 NCOPY  =       0

     BOX TYPE: RECTILINEAR

--------------------------------------------------------------------------------
   2.  CONTROL  DATA  FOR  THE  RUN
--------------------------------------------------------------------------------

default_name

General flags:
     imin    =       0, nmropt  =       0

Nature and format of input:
     ntx     =       7, irest   =       1, ntrx    =       1

Nature and format of output:
     ntxo    =       2, ntpr    =     500, ntrx    =       1, ntwr    =     500
     iwrap   =       0, ntwx    =     500, ntwv    =       0, ntwe    =       0
     ioutfm  =       1, ntwprt  =       0, idecomp =       0, rbornstat=      0

Potential function:
     ntf     =       2, ntb     =       1, igb     =       0, nsnb    =      25
     ipol    =       0, gbsa    =       0, iesp    =       0
     dielc   =   1.00000, cut     =   9.00000, intdiel =   1.00000

Frozen or restrained atoms:
     ibelly  =       0, ntr     =       1
     restraint_wt =   0.50000

Molecular dynamics:
     nstlim  =     10000, nscm    =         0, nrespa  =         1
     t       =   0.00000, dt      =   0.00200, vlimit  =  -1.00000

Berendsen (weak-coupling) temperature regulation:
     temp0   = 300.00000, tempi   = 300.00000, tautp   =   1.00000

SHAKE:
     ntc     =       2, jfastw  =       0
     tol     =   0.00001

Ewald parameters:
     verbose =       0, ew_type =       0, nbflag  =       1, use_pme =       1
     vdwmeth =       1, eedmeth =       1, netfrc  =       1
     Box X =   71.755   Box Y =   81.320   Box Z =   83.256
     Alpha =   90.000   Beta  =   90.000   Gamma =   90.000
     NFFT1 =   72       NFFT2 =   84       NFFT3 =   84
     Cutoff=    9.000   Tol   =0.100E-04
     Ewald Coefficient =  0.30768
     Interpolation order =    4

    LOADING THE CONSTRAINED ATOMS AS GROUPS

   5.  REFERENCE ATOM COORDINATES

  default_name
     Mask :1-225@CA; matches   224 atoms

--------------------------------------------------------------------------------
   3.  ATOMIC COORDINATES AND VELOCITIES
--------------------------------------------------------------------------------

default_name
 begin time read from input coords =    60.000 ps

 Number of triangulated 3-point waters found:    12062

     Sum of charges from parm topology file =   0.00000190
     Forcing neutrality...

--------------------------------------------------------------------------------
   4.  RESULTS
 NSTEP =      500   TIME(PS) =      61.000  TEMP(K) =   298.51  PRESS =     0.0
 Etot   =    -95205.8947  EKtot   =     24112.3145  EPtot      =   -119318.2091
 BOND   =       656.0876  ANGLE   =      1852.0173  DIHED      =      2920.5160
 1-4 NB =       791.2536  1-4 EEL =     10684.6497  VDWAALS    =     14710.6050
 EELEC  =   -150964.4908  EHBOND  =         0.0000  RESTRAINT  =        31.1525
 EAMBER (non-restraint)  =   -119349.3616
 ------------------------------------------------------------------------------

      A V E R A G E S   O V E R      20 S T E P S

 NSTEP =    10000   TIME(PS) =      80.000  TEMP(K) =   299.78  PRESS =     0.0
 Etot   =    -95157.1302  EKtot   =     24214.7780  EPtot      =   -119371.9082
 BOND   =       656.5307  ANGLE   =      1856.7909  DIHED      =      2870.1597
 1-4 NB =       799.3258  1-4 EEL =     10713.6647  VDWAALS    =     14737.9336
 EELEC  =   -151035.8565  EHBOND  =         0.0000  RESTRAINT  =        29.5428
 EAMBER (non-restraint)  =   -119401.4510
 ------------------------------------------------------------------------------

      R M S  F L U C T U A T I O N S

 NSTEP =    10000   TIME(PS) =      80.000  TEMP(K) =     1.06  PRESS =     0.0
 Etot   =        30.7121  EKtot   =        85.5285  EPtot      =        86.2450
 BOND   =        15.3298  ANGLE   =        25.9461  DIHED      =        19.0421
 1-4 NB =        10.9386  1-4 EEL =        29.9547  VDWAALS    =       153.7272
 EELEC  =       185.1461  EHBOND  =         0.0000  RESTRAINT  =         2.8715
 EAMBER (non-restraint)  =        83.3734
 ------------------------------------------------------------------------------
