-------------------------------------------------------
          Amber 24 PMEMD                              2024
          -------------------------------------------------------

  [-O]verwriting output

File Assignments:

 Here is the input file:

md 5 ns temp = 300 P=cte (ntb=2,ntp=1) No restraints
&cntrl
 nstlim = 15000000, dt = 0.002,
 ntx = 5, irest = 1, cut = 9.0, ioutfm = 1,
 ntpr = 50000, ntwr = 50000, ntwx = 50000,
 iwrap = 1,
 tempi = 300., temp0 = 300.,
 ntt = 1,
 ntb = 2, ntp = 1,
 ntc = 2, ntf = 2,
 ntr = 0,
&end

Note: ig = -1. Setting random seed to   211211 based on wallclock time in
      microseconds.

--------------------------------------------------------------------------------
   1.  RESOURCE   USE:
--------------------------------------------------------------------------------

 getting box info from netcdf restart file
 NATOM  =   39744 NTYPES =      16 NBONH =   37937 MBONA  =    1844
 NTHETH =    3999 MTHETA =    2499 NPHIH =    8123 MPHIA  =    7877
 NHPARM =       0 NPARM  =       0 NNB   =   67903 NRES   =   12294
 NBONA  =    1844 NTHETA =    2499 NPHIA =    7877 NUMBND =      77
 NUMANG =     179 NPTRA  =     200 NATYP =      39 NPHB   =       0
 IFBOX  =       1 NMXRS  =      40 IFCAP =       0 NEXTRA =       0
 NCOPY  =       0

     BOX TYPE: RECTILINEAR

--------------------------------------------------------------------------------
   2.  CONTROL  DATA  FOR  THE  RUN
--------------------------------------------------------------------------------

default_name

General flags:
     imin    =       0, nmropt  =       0

Nature and format of input:
     ntx     =       5, irest   =       1, ntrx    =       1

Nature and format of output:
     ntxo    =       2, ntpr    =   50000, ntrx    =       1, ntwr    =   50000
     iwrap   =       1, ntwx    =   50000, ntwv    =       0, ntwe    =       0
     ioutfm  =       1, ntwprt  =       0, idecomp =       0, rbornstat=      0

Potential function:
     ntf     =       2, ntb     =       2, igb     =       0, nsnb    =      25
     ipol    =       0, gbsa    =       0, iesp    =       0
     dielc   =   1.00000, cut     =   9.00000, intdiel =   1.00000

Frozen or restrained atoms:
     ibelly  =       0, ntr     =       0

Molecular dynamics:
     nstlim  =  15000000, nscm    =      1000, nrespa  =         1
     t       =   0.00000, dt      =   0.00200, vlimit  =  -1.00000

Berendsen (weak-coupling) temperature regulation:
     temp0   = 300.00000, tempi   = 300.00000, tautp   =   1.00000

Pressure regulation:
     ntp     =       1
     pres0   =   1.00000, comp    =  44.60000, taup    =   1.00000

SHAKE:
     ntc     =       2, jfastw  =       0
     tol     =   0.00001

Ewald parameters:
     verbose =       0, ew_type =       0, nbflag  =       1, use_pme =       1
     vdwmeth =       1, eedmeth =       1, netfrc  =       1
     Box X =   67.129   Box Y =   76.078   Box Z =   77.888
     Alpha =   90.000   Beta  =   90.000   Gamma =   90.000
     NFFT1 =   64       NFFT2 =   80       NFFT3 =   80
     Cutoff=    9.000   Tol   =0.100E-04
     Ewald Coefficient =  0.30768
     Interpolation order =    4

--------------------------------------------------------------------------------
   3.  ATOMIC COORDINATES AND VELOCITIES
--------------------------------------------------------------------------------

default_name
 begin time read from input coords =270110.000 ps

 Number of triangulated 3-point waters found:    12062

     Sum of charges from parm topology file =   0.00000190
     Forcing neutrality...

--------------------------------------------------------------------------------
   4.  RESULTS
 NSTEP =    50000   TIME(PS) =  270210.000  TEMP(K) =   299.76  PRESS =  -232.9
 Etot   =    -97437.1870  EKtot   =     24212.1387  EPtot      =   -121649.3257
 BOND   =       657.2523  ANGLE   =      1917.2877  DIHED      =      2810.3717
 1-4 NB =       795.4957  1-4 EEL =     10589.8549  VDWAALS    =     14687.5224
 EELEC  =   -153107.1106  EHBOND  =         0.0000  RESTRAINT  =         0.0000
 EKCMT  =     10946.6666  VIRIAL  =     12938.1733  VOLUME     =    396104.7969
                                                    Density    =         1.0184
 ------------------------------------------------------------------------------

      A V E R A G E S   O V E R     300 S T E P S

 NSTEP = 15000000   TIME(PS) =  300110.000  TEMP(K) =   300.01  PRESS =    -7.0
 Etot   =    -97356.8423  EKtot   =     24232.4640  EPtot      =   -121589.3063
 BOND   =       665.7686  ANGLE   =      1880.6175  DIHED      =      2810.7902
 1-4 NB =       798.0620  1-4 EEL =     10607.1929  VDWAALS    =     15011.6687
 EELEC  =   -153363.4063  EHBOND  =         0.0000  RESTRAINT  =         0.0000
 EKCMT  =     10870.1390  VIRIAL  =     10930.2314  VOLUME     =    397555.2422
                                                    Density    =         1.0147
 ------------------------------------------------------------------------------

      R M S  F L U C T U A T I O N S

 NSTEP = 15000000   TIME(PS) =  300110.000  TEMP(K) =     1.15  PRESS =   116.8
 Etot   =        45.2053  EKtot   =        92.6085  EPtot      =       100.1682
 BOND   =        19.3102  ANGLE   =        33.4073  DIHED      =        19.2837
 1-4 NB =        11.2201  1-4 EEL =        39.7007  VDWAALS    =       146.9598
 EELEC  =       188.3655  EHBOND  =         0.0000  RESTRAINT  =         0.0000
 EKCMT  =        74.9061  VIRIAL  =      1000.4672  VOLUME     =       495.5398
                                                    Density    =         0.0013
 ------------------------------------------------------------------------------
