-------------------------------------------------------
          Amber 24 PMEMD                              2024
          -------------------------------------------------------

  [-O]verwriting output

File Assignments:

 Here is the input file:

md 5 ns temp = 300 P=cte (ntb=2,ntp=1) No restraints
&cntrl
 nstlim = 15000000, dt = 0.002,
 ntx = 5, irest = 1, cut = 9.0, ioutfm = 1,
 ntpr = 50000, ntwr = 50000, ntwx = 50000,
 iwrap = 1,
 tempi = 300., temp0 = 300.,
 ntt = 1,
 ntb = 2, ntp = 1,
 ntc = 2, ntf = 2,
 ntr = 0,
&end

Note: ig = -1. Setting random seed to   402940 based on wallclock time in
      microseconds.

--------------------------------------------------------------------------------
   1.  RESOURCE   USE:
--------------------------------------------------------------------------------

 getting box info from netcdf restart file
 NATOM  =   39744 NTYPES =      16 NBONH =   37937 MBONA  =    1844
 NTHETH =    3999 MTHETA =    2499 NPHIH =    8123 MPHIA  =    7877
 NHPARM =       0 NPARM  =       0 NNB   =   67903 NRES   =   12294
 NBONA  =    1844 NTHETA =    2499 NPHIA =    7877 NUMBND =      77
 NUMANG =     179 NPTRA  =     200 NATYP =      39 NPHB   =       0
 IFBOX  =       1 NMXRS  =      40 IFCAP =       0 NEXTRA =       0
 NCOPY  =       0

     BOX TYPE: RECTILINEAR

--------------------------------------------------------------------------------
   2.  CONTROL  DATA  FOR  THE  RUN
--------------------------------------------------------------------------------

default_name

General flags:
     imin    =       0, nmropt  =       0

Nature and format of input:
     ntx     =       5, irest   =       1, ntrx    =       1

Nature and format of output:
     ntxo    =       2, ntpr    =   50000, ntrx    =       1, ntwr    =   50000
     iwrap   =       1, ntwx    =   50000, ntwv    =       0, ntwe    =       0
     ioutfm  =       1, ntwprt  =       0, idecomp =       0, rbornstat=      0

Potential function:
     ntf     =       2, ntb     =       2, igb     =       0, nsnb    =      25
     ipol    =       0, gbsa    =       0, iesp    =       0
     dielc   =   1.00000, cut     =   9.00000, intdiel =   1.00000

Frozen or restrained atoms:
     ibelly  =       0, ntr     =       0

Molecular dynamics:
     nstlim  =  15000000, nscm    =      1000, nrespa  =         1
     t       =   0.00000, dt      =   0.00200, vlimit  =  -1.00000

Berendsen (weak-coupling) temperature regulation:
     temp0   = 300.00000, tempi   = 300.00000, tautp   =   1.00000

Pressure regulation:
     ntp     =       1
     pres0   =   1.00000, comp    =  44.60000, taup    =   1.00000

SHAKE:
     ntc     =       2, jfastw  =       0
     tol     =   0.00001

Ewald parameters:
     verbose =       0, ew_type =       0, nbflag  =       1, use_pme =       1
     vdwmeth =       1, eedmeth =       1, netfrc  =       1
     Box X =   67.139   Box Y =   76.089   Box Z =   77.900
     Alpha =   90.000   Beta  =   90.000   Gamma =   90.000
     NFFT1 =   64       NFFT2 =   80       NFFT3 =   80
     Cutoff=    9.000   Tol   =0.100E-04
     Ewald Coefficient =  0.30768
     Interpolation order =    4

--------------------------------------------------------------------------------
   3.  ATOMIC COORDINATES AND VELOCITIES
--------------------------------------------------------------------------------

default_name
 begin time read from input coords =210110.000 ps

 Number of triangulated 3-point waters found:    12062

     Sum of charges from parm topology file =   0.00000190
     Forcing neutrality...

--------------------------------------------------------------------------------
   4.  RESULTS
 NSTEP =    50000   TIME(PS) =  210210.000  TEMP(K) =   301.05  PRESS =   -37.4
 Etot   =    -97342.6033  EKtot   =     24316.1230  EPtot      =   -121658.7263
 BOND   =       703.1392  ANGLE   =      1892.1550  DIHED      =      2812.4958
 1-4 NB =       786.6655  1-4 EEL =     10614.2630  VDWAALS    =     14994.6202
 EELEC  =   -153462.0652  EHBOND  =         0.0000  RESTRAINT  =         0.0000
 EKCMT  =     10860.2052  VIRIAL  =     11180.5659  VOLUME     =    397031.8052
                                                    Density    =         1.0161
 ------------------------------------------------------------------------------

      A V E R A G E S   O V E R     300 S T E P S

 NSTEP = 15000000   TIME(PS) =  240110.000  TEMP(K) =   299.80  PRESS =     3.8
 Etot   =    -97332.2691  EKtot   =     24215.5914  EPtot      =   -121547.8605
 BOND   =       666.7002  ANGLE   =      1882.0635  DIHED      =      2820.4156
 1-4 NB =       797.2610  1-4 EEL =     10625.4046  VDWAALS    =     15037.7320
 EELEC  =   -153377.4374  EHBOND  =         0.0000  RESTRAINT  =         0.0000
 EKCMT  =     10857.7380  VIRIAL  =     10824.7152  VOLUME     =    397656.4149
                                                    Density    =         1.0145
 ------------------------------------------------------------------------------

      R M S  F L U C T U A T I O N S

 NSTEP = 15000000   TIME(PS) =  240110.000  TEMP(K) =     1.07  PRESS =   104.9
 Etot   =        44.8247  EKtot   =        86.5848  EPtot      =       101.1309
 BOND   =        20.5463  ANGLE   =        30.4919  DIHED      =        19.5577
 1-4 NB =        11.5255  1-4 EEL =        43.5353  VDWAALS    =       137.9860
 EELEC  =       187.5668  EHBOND  =         0.0000  RESTRAINT  =         0.0000
 EKCMT  =        75.7684  VIRIAL  =       899.0201  VOLUME     =       488.1389
                                                    Density    =         0.0012
 ------------------------------------------------------------------------------
