-------------------------------------------------------
          Amber 24 PMEMD                              2024
          -------------------------------------------------------

  [-O]verwriting output

File Assignments:

 Here is the input file:

md 5 ns temp = 300 P=cte (ntb=2,ntp=1) No restraints
&cntrl
 nstlim = 15000000, dt = 0.002,
 ntx = 5, irest = 1, cut = 9.0, ioutfm = 1,
 ntpr = 50000, ntwr = 50000, ntwx = 50000,
 iwrap = 1,
 tempi = 300., temp0 = 300.,
 ntt = 1,
 ntb = 2, ntp = 1,
 ntc = 2, ntf = 2,
 ntr = 0,
&end

Note: ig = -1. Setting random seed to   200267 based on wallclock time in
      microseconds.

--------------------------------------------------------------------------------
   1.  RESOURCE   USE:
--------------------------------------------------------------------------------

 getting box info from netcdf restart file
 NATOM  =   39744 NTYPES =      16 NBONH =   37937 MBONA  =    1844
 NTHETH =    3999 MTHETA =    2499 NPHIH =    8123 MPHIA  =    7877
 NHPARM =       0 NPARM  =       0 NNB   =   67903 NRES   =   12294
 NBONA  =    1844 NTHETA =    2499 NPHIA =    7877 NUMBND =      77
 NUMANG =     179 NPTRA  =     200 NATYP =      39 NPHB   =       0
 IFBOX  =       1 NMXRS  =      40 IFCAP =       0 NEXTRA =       0
 NCOPY  =       0

     BOX TYPE: RECTILINEAR

--------------------------------------------------------------------------------
   2.  CONTROL  DATA  FOR  THE  RUN
--------------------------------------------------------------------------------

default_name

General flags:
     imin    =       0, nmropt  =       0

Nature and format of input:
     ntx     =       5, irest   =       1, ntrx    =       1

Nature and format of output:
     ntxo    =       2, ntpr    =   50000, ntrx    =       1, ntwr    =   50000
     iwrap   =       1, ntwx    =   50000, ntwv    =       0, ntwe    =       0
     ioutfm  =       1, ntwprt  =       0, idecomp =       0, rbornstat=      0

Potential function:
     ntf     =       2, ntb     =       2, igb     =       0, nsnb    =      25
     ipol    =       0, gbsa    =       0, iesp    =       0
     dielc   =   1.00000, cut     =   9.00000, intdiel =   1.00000

Frozen or restrained atoms:
     ibelly  =       0, ntr     =       0

Molecular dynamics:
     nstlim  =  15000000, nscm    =      1000, nrespa  =         1
     t       =   0.00000, dt      =   0.00200, vlimit  =  -1.00000

Berendsen (weak-coupling) temperature regulation:
     temp0   = 300.00000, tempi   = 300.00000, tautp   =   1.00000

Pressure regulation:
     ntp     =       1
     pres0   =   1.00000, comp    =  44.60000, taup    =   1.00000

SHAKE:
     ntc     =       2, jfastw  =       0
     tol     =   0.00001

Ewald parameters:
     verbose =       0, ew_type =       0, nbflag  =       1, use_pme =       1
     vdwmeth =       1, eedmeth =       1, netfrc  =       1
     Box X =   67.096   Box Y =   76.040   Box Z =   77.849
     Alpha =   90.000   Beta  =   90.000   Gamma =   90.000
     NFFT1 =   64       NFFT2 =   80       NFFT3 =   80
     Cutoff=    9.000   Tol   =0.100E-04
     Ewald Coefficient =  0.30768
     Interpolation order =    4

--------------------------------------------------------------------------------
   3.  ATOMIC COORDINATES AND VELOCITIES
--------------------------------------------------------------------------------

default_name
 begin time read from input coords = 60110.000 ps

 Number of triangulated 3-point waters found:    12062

     Sum of charges from parm topology file =   0.00000190
     Forcing neutrality...

--------------------------------------------------------------------------------
   4.  RESULTS
 NSTEP =    50000   TIME(PS) =   60210.000  TEMP(K) =   300.04  PRESS =    -8.5
 Etot   =    -97299.1748  EKtot   =     24234.9746  EPtot      =   -121534.1494
 BOND   =       630.7778  ANGLE   =      1885.9526  DIHED      =      2847.6910
 1-4 NB =       791.7205  1-4 EEL =     10602.1914  VDWAALS    =     14931.2945
 EELEC  =   -153223.7772  EHBOND  =         0.0000  RESTRAINT  =         0.0000
 EKCMT  =     10827.5657  VIRIAL  =     10900.4522  VOLUME     =    397569.6391
                                                    Density    =         1.0147
 ------------------------------------------------------------------------------

      A V E R A G E S   O V E R     300 S T E P S

 NSTEP = 15000000   TIME(PS) =   90110.000  TEMP(K) =   300.02  PRESS =     6.9
 Etot   =    -97320.4325  EKtot   =     24232.9814  EPtot      =   -121553.4139
 BOND   =       666.0428  ANGLE   =      1876.8074  DIHED      =      2826.2622
 1-4 NB =       798.7677  1-4 EEL =     10611.4884  VDWAALS    =     15031.4737
 EELEC  =   -153364.2562  EHBOND  =         0.0000  RESTRAINT  =         0.0000
 EKCMT  =     10867.9977  VIRIAL  =     10808.7647  VOLUME     =    397642.5216
                                                    Density    =         1.0145
 ------------------------------------------------------------------------------

      R M S  F L U C T U A T I O N S

 NSTEP = 15000000   TIME(PS) =   90110.000  TEMP(K) =     1.16  PRESS =   123.7
 Etot   =        43.7136  EKtot   =        93.5471  EPtot      =       105.8237
 BOND   =        21.9599  ANGLE   =        29.9023  DIHED      =        21.3908
 1-4 NB =        11.8572  1-4 EEL =        45.4487  VDWAALS    =       155.0074
 EELEC  =       203.0074  EHBOND  =         0.0000  RESTRAINT  =         0.0000
 EKCMT  =        74.1350  VIRIAL  =      1071.7627  VOLUME     =       497.0690
                                                    Density    =         0.0013
 ------------------------------------------------------------------------------
