-------------------------------------------------------
          Amber 24 PMEMD                              2024
          -------------------------------------------------------

  [-O]verwriting output

File Assignments:

 Here is the input file:

md 5 ns temp = 300 P=cte (ntb=2,ntp=1) No restraints
&cntrl
 nstlim = 15000000, dt = 0.002,
 ntx = 5, irest = 1, cut = 9.0, ioutfm = 1,
 ntpr = 50000, ntwr = 50000, ntwx = 50000,
 iwrap = 1,
 tempi = 300., temp0 = 300.,
 ntt = 1,
 ntb = 2, ntp = 1,
 ntc = 2, ntf = 2,
 ntr = 0,
&end

Note: ig = -1. Setting random seed to   252018 based on wallclock time in
      microseconds.

--------------------------------------------------------------------------------
   1.  RESOURCE   USE:
--------------------------------------------------------------------------------

 getting box info from netcdf restart file
 NATOM  =   39744 NTYPES =      16 NBONH =   37937 MBONA  =    1844
 NTHETH =    3999 MTHETA =    2499 NPHIH =    8123 MPHIA  =    7877
 NHPARM =       0 NPARM  =       0 NNB   =   67903 NRES   =   12294
 NBONA  =    1844 NTHETA =    2499 NPHIA =    7877 NUMBND =      77
 NUMANG =     179 NPTRA  =     200 NATYP =      39 NPHB   =       0
 IFBOX  =       1 NMXRS  =      40 IFCAP =       0 NEXTRA =       0
 NCOPY  =       0

     BOX TYPE: RECTILINEAR

--------------------------------------------------------------------------------
   2.  CONTROL  DATA  FOR  THE  RUN
--------------------------------------------------------------------------------

default_name

General flags:
     imin    =       0, nmropt  =       0

Nature and format of input:
     ntx     =       5, irest   =       1, ntrx    =       1

Nature and format of output:
     ntxo    =       2, ntpr    =   50000, ntrx    =       1, ntwr    =   50000
     iwrap   =       1, ntwx    =   50000, ntwv    =       0, ntwe    =       0
     ioutfm  =       1, ntwprt  =       0, idecomp =       0, rbornstat=      0

Potential function:
     ntf     =       2, ntb     =       2, igb     =       0, nsnb    =      25
     ipol    =       0, gbsa    =       0, iesp    =       0
     dielc   =   1.00000, cut     =   9.00000, intdiel =   1.00000

Frozen or restrained atoms:
     ibelly  =       0, ntr     =       0

Molecular dynamics:
     nstlim  =  15000000, nscm    =      1000, nrespa  =         1
     t       =   0.00000, dt      =   0.00200, vlimit  =  -1.00000

Berendsen (weak-coupling) temperature regulation:
     temp0   = 300.00000, tempi   = 300.00000, tautp   =   1.00000

Pressure regulation:
     ntp     =       1
     pres0   =   1.00000, comp    =  44.60000, taup    =   1.00000

SHAKE:
     ntc     =       2, jfastw  =       0
     tol     =   0.00001

Ewald parameters:
     verbose =       0, ew_type =       0, nbflag  =       1, use_pme =       1
     vdwmeth =       1, eedmeth =       1, netfrc  =       1
     Box X =   67.071   Box Y =   76.012   Box Z =   77.821
     Alpha =   90.000   Beta  =   90.000   Gamma =   90.000
     NFFT1 =   64       NFFT2 =   80       NFFT3 =   80
     Cutoff=    9.000   Tol   =0.100E-04
     Ewald Coefficient =  0.30768
     Interpolation order =    4

--------------------------------------------------------------------------------
   3.  ATOMIC COORDINATES AND VELOCITIES
--------------------------------------------------------------------------------

default_name
 begin time read from input coords = 30110.000 ps

 Number of triangulated 3-point waters found:    12062

     Sum of charges from parm topology file =   0.00000190
     Forcing neutrality...

--------------------------------------------------------------------------------
   4.  RESULTS
 NSTEP =    50000   TIME(PS) =   30210.000  TEMP(K) =   300.59  PRESS =   158.6
 Etot   =    -97266.0910  EKtot   =     24278.8398  EPtot      =   -121544.9308
 BOND   =       611.8357  ANGLE   =      1875.3888  DIHED      =      2865.2019
 1-4 NB =       799.2339  1-4 EEL =     10641.1777  VDWAALS    =     15290.0757
 EELEC  =   -153627.8444  EHBOND  =         0.0000  RESTRAINT  =         0.0000
 EKCMT  =     10791.7599  VIRIAL  =      9430.4098  VOLUME     =    397471.1730
                                                    Density    =         1.0149
 ------------------------------------------------------------------------------

      A V E R A G E S   O V E R     300 S T E P S

 NSTEP = 15000000   TIME(PS) =   60110.000  TEMP(K) =   299.94  PRESS =     1.2
 Etot   =    -97303.7657  EKtot   =     24226.2862  EPtot      =   -121530.0519
 BOND   =       664.6152  ANGLE   =      1876.3773  DIHED      =      2836.7308
 1-4 NB =       797.3423  1-4 EEL =     10623.3931  VDWAALS    =     15012.2554
 EELEC  =   -153340.7660  EHBOND  =         0.0000  RESTRAINT  =         0.0000
 EKCMT  =     10864.5080  VIRIAL  =     10853.9454  VOLUME     =    397663.7690
                                                    Density    =         1.0145
 ------------------------------------------------------------------------------

      R M S  F L U C T U A T I O N S

 NSTEP = 15000000   TIME(PS) =   60110.000  TEMP(K) =     1.09  PRESS =   113.0
 Etot   =        45.6794  EKtot   =        88.3615  EPtot      =        98.0114
 BOND   =        20.0567  ANGLE   =        31.8477  DIHED      =        19.1034
 1-4 NB =        11.6392  1-4 EEL =        42.3041  VDWAALS    =       143.4686
 EELEC  =       187.5387  EHBOND  =         0.0000  RESTRAINT  =         0.0000
 EKCMT  =        70.5480  VIRIAL  =       975.5651  VOLUME     =       478.1826
                                                    Density    =         0.0012
 ------------------------------------------------------------------------------
