-------------------------------------------------------
          Amber 24 PMEMD                              2024
          -------------------------------------------------------

  [-O]verwriting output

File Assignments:

 Here is the input file:

eq4 temp = 300, k = 2.5 V=cte (ntb=1)
&cntrl
 nstlim = 10000, dt = 0.002,
 ntx = 7, irest = 1, iwrap=0, cut= 9.0, ioutfm = 1,
 ntpr = 500, ntwr = 500, ntwx = 500,
 tempi = 300., temp0 = 300.,
 ntt = 1,
 ntb = 1,
 ntc = 2, ntf = 2,
 ntr = 1,
 restraint_wt = 0.25, restraintmask = ":1-225@CA"
&end

Note: ig = -1. Setting random seed to   759623 based on wallclock time in
      microseconds.

--------------------------------------------------------------------------------
   1.  RESOURCE   USE:
--------------------------------------------------------------------------------

 getting box info from netcdf restart file
 NATOM  =   39744 NTYPES =      16 NBONH =   37937 MBONA  =    1844
 NTHETH =    3999 MTHETA =    2499 NPHIH =    8123 MPHIA  =    7877
 NHPARM =       0 NPARM  =       0 NNB   =   67903 NRES   =   12294
 NBONA  =    1844 NTHETA =    2499 NPHIA =    7877 NUMBND =      77
 NUMANG =     179 NPTRA  =     200 NATYP =      39 NPHB   =       0
 IFBOX  =       1 NMXRS  =      40 IFCAP =       0 NEXTRA =       0
 NCOPY  =       0

     BOX TYPE: RECTILINEAR

--------------------------------------------------------------------------------
   2.  CONTROL  DATA  FOR  THE  RUN
--------------------------------------------------------------------------------

default_name

General flags:
     imin    =       0, nmropt  =       0

Nature and format of input:
     ntx     =       7, irest   =       1, ntrx    =       1

Nature and format of output:
     ntxo    =       2, ntpr    =     500, ntrx    =       1, ntwr    =     500
     iwrap   =       0, ntwx    =     500, ntwv    =       0, ntwe    =       0
     ioutfm  =       1, ntwprt  =       0, idecomp =       0, rbornstat=      0

Potential function:
     ntf     =       2, ntb     =       1, igb     =       0, nsnb    =      25
     ipol    =       0, gbsa    =       0, iesp    =       0
     dielc   =   1.00000, cut     =   9.00000, intdiel =   1.00000

Frozen or restrained atoms:
     ibelly  =       0, ntr     =       1
     restraint_wt =   0.25000

Molecular dynamics:
     nstlim  =     10000, nscm    =         0, nrespa  =         1
     t       =   0.00000, dt      =   0.00200, vlimit  =  -1.00000

Berendsen (weak-coupling) temperature regulation:
     temp0   = 300.00000, tempi   = 300.00000, tautp   =   1.00000

SHAKE:
     ntc     =       2, jfastw  =       0
     tol     =   0.00001

Ewald parameters:
     verbose =       0, ew_type =       0, nbflag  =       1, use_pme =       1
     vdwmeth =       1, eedmeth =       1, netfrc  =       1
     Box X =   71.755   Box Y =   81.320   Box Z =   83.256
     Alpha =   90.000   Beta  =   90.000   Gamma =   90.000
     NFFT1 =   72       NFFT2 =   84       NFFT3 =   84
     Cutoff=    9.000   Tol   =0.100E-04
     Ewald Coefficient =  0.30768
     Interpolation order =    4

    LOADING THE CONSTRAINED ATOMS AS GROUPS

   5.  REFERENCE ATOM COORDINATES

  default_name
     Mask :1-225@CA; matches   224 atoms

--------------------------------------------------------------------------------
   3.  ATOMIC COORDINATES AND VELOCITIES
--------------------------------------------------------------------------------

default_name
 begin time read from input coords =    80.000 ps

 Number of triangulated 3-point waters found:    12062

     Sum of charges from parm topology file =   0.00000190
     Forcing neutrality...

--------------------------------------------------------------------------------
   4.  RESULTS
 NSTEP =      500   TIME(PS) =      81.000  TEMP(K) =   299.01  PRESS =     0.0
 Etot   =    -95185.4354  EKtot   =     24152.7285  EPtot      =   -119338.1639
 BOND   =       665.7494  ANGLE   =      1859.8669  DIHED      =      2864.4045
 1-4 NB =       793.9125  1-4 EEL =     10710.3066  VDWAALS    =     14540.2778
 EELEC  =   -150792.7796  EHBOND  =         0.0000  RESTRAINT  =        20.0980
 EAMBER (non-restraint)  =   -119358.2619
 ------------------------------------------------------------------------------

      A V E R A G E S   O V E R      20 S T E P S

 NSTEP =    10000   TIME(PS) =     100.000  TEMP(K) =   300.36  PRESS =     0.0
 Etot   =    -95167.2187  EKtot   =     24261.0406  EPtot      =   -119428.2594
 BOND   =       666.6443  ANGLE   =      1877.1699  DIHED      =      2868.1050
 1-4 NB =       797.8642  1-4 EEL =     10702.6056  VDWAALS    =     14697.2332
 EELEC  =   -151060.5107  EHBOND  =         0.0000  RESTRAINT  =        22.6292
 EAMBER (non-restraint)  =   -119450.8885
 ------------------------------------------------------------------------------

      R M S  F L U C T U A T I O N S

 NSTEP =    10000   TIME(PS) =     100.000  TEMP(K) =     1.00  PRESS =     0.0
 Etot   =        58.5056  EKtot   =        80.9094  EPtot      =       107.4698
 BOND   =        16.8350  ANGLE   =        26.4510  DIHED      =        16.5020
 1-4 NB =         8.3815  1-4 EEL =        30.4391  VDWAALS    =       155.4291
 EELEC  =       239.1385  EHBOND  =         0.0000  RESTRAINT  =         2.4630
 EAMBER (non-restraint)  =       105.0068
 ------------------------------------------------------------------------------
