-------------------------------------------------------
          Amber 24 PMEMD                              2024
          -------------------------------------------------------

  [-O]verwriting output

File Assignments:

 Here is the input file:

md 5 ns temp = 300 P=cte (ntb=2,ntp=1) No restraints
&cntrl
 nstlim = 15000000, dt = 0.002,
 ntx = 5, irest = 1, cut = 9.0, ioutfm = 1,
 ntpr = 50000, ntwr = 50000, ntwx = 50000,
 iwrap = 1,
 tempi = 300., temp0 = 300.,
 ntt = 1,
 ntb = 2, ntp = 1,
 ntc = 2, ntf = 2,
 ntr = 0,
&end

Note: ig = -1. Setting random seed to   760924 based on wallclock time in
      microseconds.

--------------------------------------------------------------------------------
   1.  RESOURCE   USE:
--------------------------------------------------------------------------------

 getting box info from netcdf restart file
 NATOM  =   39744 NTYPES =      16 NBONH =   37937 MBONA  =    1844
 NTHETH =    3999 MTHETA =    2499 NPHIH =    8123 MPHIA  =    7877
 NHPARM =       0 NPARM  =       0 NNB   =   67903 NRES   =   12294
 NBONA  =    1844 NTHETA =    2499 NPHIA =    7877 NUMBND =      77
 NUMANG =     179 NPTRA  =     200 NATYP =      39 NPHB   =       0
 IFBOX  =       1 NMXRS  =      40 IFCAP =       0 NEXTRA =       0
 NCOPY  =       0

     BOX TYPE: RECTILINEAR

--------------------------------------------------------------------------------
   2.  CONTROL  DATA  FOR  THE  RUN
--------------------------------------------------------------------------------

default_name

General flags:
     imin    =       0, nmropt  =       0

Nature and format of input:
     ntx     =       5, irest   =       1, ntrx    =       1

Nature and format of output:
     ntxo    =       2, ntpr    =   50000, ntrx    =       1, ntwr    =   50000
     iwrap   =       1, ntwx    =   50000, ntwv    =       0, ntwe    =       0
     ioutfm  =       1, ntwprt  =       0, idecomp =       0, rbornstat=      0

Potential function:
     ntf     =       2, ntb     =       2, igb     =       0, nsnb    =      25
     ipol    =       0, gbsa    =       0, iesp    =       0
     dielc   =   1.00000, cut     =   9.00000, intdiel =   1.00000

Frozen or restrained atoms:
     ibelly  =       0, ntr     =       0

Molecular dynamics:
     nstlim  =  15000000, nscm    =      1000, nrespa  =         1
     t       =   0.00000, dt      =   0.00200, vlimit  =  -1.00000

Berendsen (weak-coupling) temperature regulation:
     temp0   = 300.00000, tempi   = 300.00000, tautp   =   1.00000

Pressure regulation:
     ntp     =       1
     pres0   =   1.00000, comp    =  44.60000, taup    =   1.00000

SHAKE:
     ntc     =       2, jfastw  =       0
     tol     =   0.00001

Ewald parameters:
     verbose =       0, ew_type =       0, nbflag  =       1, use_pme =       1
     vdwmeth =       1, eedmeth =       1, netfrc  =       1
     Box X =   67.078   Box Y =   76.020   Box Z =   77.829
     Alpha =   90.000   Beta  =   90.000   Gamma =   90.000
     NFFT1 =   64       NFFT2 =   80       NFFT3 =   80
     Cutoff=    9.000   Tol   =0.100E-04
     Ewald Coefficient =  0.30768
     Interpolation order =    4

--------------------------------------------------------------------------------
   3.  ATOMIC COORDINATES AND VELOCITIES
--------------------------------------------------------------------------------

default_name
 begin time read from input coords =150110.000 ps

 Number of triangulated 3-point waters found:    12062

     Sum of charges from parm topology file =   0.00000190
     Forcing neutrality...

--------------------------------------------------------------------------------
   4.  RESULTS
 NSTEP =    50000   TIME(PS) =  150210.000  TEMP(K) =   302.50  PRESS =   -28.8
 Etot   =    -97268.1813  EKtot   =     24433.5645  EPtot      =   -121701.7458
 BOND   =       635.1823  ANGLE   =      1840.8242  DIHED      =      2827.0063
 1-4 NB =       812.0968  1-4 EEL =     10661.9944  VDWAALS    =     15289.7742
 EELEC  =   -153768.6240  EHBOND  =         0.0000  RESTRAINT  =         0.0000
 EKCMT  =     10984.1380  VIRIAL  =     11231.6691  VOLUME     =    398690.4372
                                                    Density    =         1.0118
 ------------------------------------------------------------------------------

      A V E R A G E S   O V E R     300 S T E P S

 NSTEP = 15000000   TIME(PS) =  180110.000  TEMP(K) =   299.82  PRESS =     3.2
 Etot   =    -97327.7621  EKtot   =     24217.1507  EPtot      =   -121544.9128
 BOND   =       667.5691  ANGLE   =      1878.9701  DIHED      =      2820.5509
 1-4 NB =       797.9894  1-4 EEL =     10610.5025  VDWAALS    =     15026.7595
 EELEC  =   -153347.2543  EHBOND  =         0.0000  RESTRAINT  =         0.0000
 EKCMT  =     10861.7539  VIRIAL  =     10833.9690  VOLUME     =    397653.2157
                                                    Density    =         1.0145
 ------------------------------------------------------------------------------

      R M S  F L U C T U A T I O N S

 NSTEP = 15000000   TIME(PS) =  180110.000  TEMP(K) =     1.17  PRESS =   118.4
 Etot   =        42.9271  EKtot   =        94.3711  EPtot      =       103.5279
 BOND   =        22.0357  ANGLE   =        30.6119  DIHED      =        19.9340
 1-4 NB =        12.4165  1-4 EEL =        42.9825  VDWAALS    =       147.0346
 EELEC  =       191.3865  EHBOND  =         0.0000  RESTRAINT  =         0.0000
 EKCMT  =        78.4542  VIRIAL  =      1028.1830  VOLUME     =       494.3136
                                                    Density    =         0.0013
 ------------------------------------------------------------------------------
