-------------------------------------------------------
          Amber 24 PMEMD                              2024
          -------------------------------------------------------

  [-O]verwriting output

File Assignments:

 Here is the input file:

md 5 ns temp = 300 P=cte (ntb=2,ntp=1) No restraints
&cntrl
 nstlim = 15000000, dt = 0.002,
 ntx = 5, irest = 1, cut = 9.0, ioutfm = 1,
 ntpr = 50000, ntwr = 50000, ntwx = 50000,
 iwrap = 1,
 tempi = 300., temp0 = 300.,
 ntt = 1,
 ntb = 2, ntp = 1,
 ntc = 2, ntf = 2,
 ntr = 0,
&end

Note: ig = -1. Setting random seed to   792864 based on wallclock time in
      microseconds.

--------------------------------------------------------------------------------
   1.  RESOURCE   USE:
--------------------------------------------------------------------------------

 getting box info from netcdf restart file
 NATOM  =   39744 NTYPES =      16 NBONH =   37937 MBONA  =    1844
 NTHETH =    3999 MTHETA =    2499 NPHIH =    8123 MPHIA  =    7877
 NHPARM =       0 NPARM  =       0 NNB   =   67903 NRES   =   12294
 NBONA  =    1844 NTHETA =    2499 NPHIA =    7877 NUMBND =      77
 NUMANG =     179 NPTRA  =     200 NATYP =      39 NPHB   =       0
 IFBOX  =       1 NMXRS  =      40 IFCAP =       0 NEXTRA =       0
 NCOPY  =       0

     BOX TYPE: RECTILINEAR

--------------------------------------------------------------------------------
   2.  CONTROL  DATA  FOR  THE  RUN
--------------------------------------------------------------------------------

default_name

General flags:
     imin    =       0, nmropt  =       0

Nature and format of input:
     ntx     =       5, irest   =       1, ntrx    =       1

Nature and format of output:
     ntxo    =       2, ntpr    =   50000, ntrx    =       1, ntwr    =   50000
     iwrap   =       1, ntwx    =   50000, ntwv    =       0, ntwe    =       0
     ioutfm  =       1, ntwprt  =       0, idecomp =       0, rbornstat=      0

Potential function:
     ntf     =       2, ntb     =       2, igb     =       0, nsnb    =      25
     ipol    =       0, gbsa    =       0, iesp    =       0
     dielc   =   1.00000, cut     =   9.00000, intdiel =   1.00000

Frozen or restrained atoms:
     ibelly  =       0, ntr     =       0

Molecular dynamics:
     nstlim  =  15000000, nscm    =      1000, nrespa  =         1
     t       =   0.00000, dt      =   0.00200, vlimit  =  -1.00000

Berendsen (weak-coupling) temperature regulation:
     temp0   = 300.00000, tempi   = 300.00000, tautp   =   1.00000

Pressure regulation:
     ntp     =       1
     pres0   =   1.00000, comp    =  44.60000, taup    =   1.00000

SHAKE:
     ntc     =       2, jfastw  =       0
     tol     =   0.00001

Ewald parameters:
     verbose =       0, ew_type =       0, nbflag  =       1, use_pme =       1
     vdwmeth =       1, eedmeth =       1, netfrc  =       1
     Box X =   67.106   Box Y =   76.051   Box Z =   77.861
     Alpha =   90.000   Beta  =   90.000   Gamma =   90.000
     NFFT1 =   64       NFFT2 =   80       NFFT3 =   80
     Cutoff=    9.000   Tol   =0.100E-04
     Ewald Coefficient =  0.30768
     Interpolation order =    4

--------------------------------------------------------------------------------
   3.  ATOMIC COORDINATES AND VELOCITIES
--------------------------------------------------------------------------------

default_name
 begin time read from input coords =180110.000 ps

 Number of triangulated 3-point waters found:    12062

     Sum of charges from parm topology file =   0.00000190
     Forcing neutrality...

--------------------------------------------------------------------------------
   4.  RESULTS
 NSTEP =    50000   TIME(PS) =  180210.000  TEMP(K) =   299.05  PRESS =   175.6
 Etot   =    -97347.6776  EKtot   =     24154.3184  EPtot      =   -121501.9960
 BOND   =       671.5880  ANGLE   =      1901.1418  DIHED      =      2797.0985
 1-4 NB =       804.9363  1-4 EEL =     10609.3181  VDWAALS    =     15247.9869
 EELEC  =   -153534.0656  EHBOND  =         0.0000  RESTRAINT  =         0.0000
 EKCMT  =     10747.0185  VIRIAL  =      9238.9576  VOLUME     =    397761.3343
                                                    Density    =         1.0142
 ------------------------------------------------------------------------------

      A V E R A G E S   O V E R     300 S T E P S

 NSTEP = 15000000   TIME(PS) =  210110.000  TEMP(K) =   299.92  PRESS =   -13.5
 Etot   =    -97329.1023  EKtot   =     24224.8663  EPtot      =   -121553.9686
 BOND   =       667.3475  ANGLE   =      1882.1541  DIHED      =      2811.1974
 1-4 NB =       797.7910  1-4 EEL =     10609.3120  VDWAALS    =     15023.4678
 EELEC  =   -153345.2384  EHBOND  =         0.0000  RESTRAINT  =         0.0000
 EKCMT  =     10867.2936  VIRIAL  =     10983.5692  VOLUME     =    397670.4890
                                                    Density    =         1.0144
 ------------------------------------------------------------------------------

      R M S  F L U C T U A T I O N S

 NSTEP = 15000000   TIME(PS) =  210110.000  TEMP(K) =     1.20  PRESS =   119.5
 Etot   =        42.1465  EKtot   =        97.1165  EPtot      =       106.2266
 BOND   =        21.1254  ANGLE   =        33.8432  DIHED      =        20.5868
 1-4 NB =        12.4470  1-4 EEL =        43.0206  VDWAALS    =       150.7428
 EELEC  =       209.9799  EHBOND  =         0.0000  RESTRAINT  =         0.0000
 EKCMT  =        74.0175  VIRIAL  =      1030.5225  VOLUME     =       473.1127
                                                    Density    =         0.0012
 ------------------------------------------------------------------------------
