-------------------------------------------------------
          Amber 24 PMEMD                              2024
          -------------------------------------------------------

  [-O]verwriting output

File Assignments:

 Here is the input file:

md 5 ns temp = 300 P=cte (ntb=2,ntp=1) No restraints
&cntrl
 nstlim = 15000000, dt = 0.002,
 ntx = 5, irest = 1, cut = 9.0, ioutfm = 1,
 ntpr = 50000, ntwr = 50000, ntwx = 50000,
 iwrap = 1,
 tempi = 300., temp0 = 300.,
 ntt = 1,
 ntb = 2, ntp = 1,
 ntc = 2, ntf = 2,
 ntr = 0,
&end

Note: ig = -1. Setting random seed to   233121 based on wallclock time in
      microseconds.

--------------------------------------------------------------------------------
   1.  RESOURCE   USE:
--------------------------------------------------------------------------------

 getting box info from netcdf restart file
 NATOM  =   39744 NTYPES =      16 NBONH =   37937 MBONA  =    1844
 NTHETH =    3999 MTHETA =    2499 NPHIH =    8123 MPHIA  =    7877
 NHPARM =       0 NPARM  =       0 NNB   =   67903 NRES   =   12294
 NBONA  =    1844 NTHETA =    2499 NPHIA =    7877 NUMBND =      77
 NUMANG =     179 NPTRA  =     200 NATYP =      39 NPHB   =       0
 IFBOX  =       1 NMXRS  =      40 IFCAP =       0 NEXTRA =       0
 NCOPY  =       0

     BOX TYPE: RECTILINEAR

--------------------------------------------------------------------------------
   2.  CONTROL  DATA  FOR  THE  RUN
--------------------------------------------------------------------------------

default_name

General flags:
     imin    =       0, nmropt  =       0

Nature and format of input:
     ntx     =       5, irest   =       1, ntrx    =       1

Nature and format of output:
     ntxo    =       2, ntpr    =   50000, ntrx    =       1, ntwr    =   50000
     iwrap   =       1, ntwx    =   50000, ntwv    =       0, ntwe    =       0
     ioutfm  =       1, ntwprt  =       0, idecomp =       0, rbornstat=      0

Potential function:
     ntf     =       2, ntb     =       2, igb     =       0, nsnb    =      25
     ipol    =       0, gbsa    =       0, iesp    =       0
     dielc   =   1.00000, cut     =   9.00000, intdiel =   1.00000

Frozen or restrained atoms:
     ibelly  =       0, ntr     =       0

Molecular dynamics:
     nstlim  =  15000000, nscm    =      1000, nrespa  =         1
     t       =   0.00000, dt      =   0.00200, vlimit  =  -1.00000

Berendsen (weak-coupling) temperature regulation:
     temp0   = 300.00000, tempi   = 300.00000, tautp   =   1.00000

Pressure regulation:
     ntp     =       1
     pres0   =   1.00000, comp    =  44.60000, taup    =   1.00000

SHAKE:
     ntc     =       2, jfastw  =       0
     tol     =   0.00001

Ewald parameters:
     verbose =       0, ew_type =       0, nbflag  =       1, use_pme =       1
     vdwmeth =       1, eedmeth =       1, netfrc  =       1
     Box X =   69.126   Box Y =   78.340   Box Z =   80.205
     Alpha =   90.000   Beta  =   90.000   Gamma =   90.000
     NFFT1 =   72       NFFT2 =   80       NFFT3 =   84
     Cutoff=    9.000   Tol   =0.100E-04
     Ewald Coefficient =  0.30768
     Interpolation order =    4

--------------------------------------------------------------------------------
   3.  ATOMIC COORDINATES AND VELOCITIES
--------------------------------------------------------------------------------

Cpptraj Generated Restart
 begin time read from input coords =   110.000 ps

 Number of triangulated 3-point waters found:    12062

     Sum of charges from parm topology file =   0.00000190
     Forcing neutrality...

--------------------------------------------------------------------------------
   4.  RESULTS
 NSTEP =    50000   TIME(PS) =     210.000  TEMP(K) =   302.32  PRESS =   -42.3
 Etot   =    -97292.4349  EKtot   =     24418.5469  EPtot      =   -121710.9818
 BOND   =       666.6843  ANGLE   =      1856.5941  DIHED      =      2860.7618
 1-4 NB =       801.2029  1-4 EEL =     10677.5404  VDWAALS    =     15058.7350
 EELEC  =   -153632.5003  EHBOND  =         0.0000  RESTRAINT  =         0.0000
 EKCMT  =     10911.4133  VIRIAL  =     11274.7439  VOLUME     =    397752.7362
                                                    Density    =         1.0142
 ------------------------------------------------------------------------------

      A V E R A G E S   O V E R     300 S T E P S

 NSTEP = 15000000   TIME(PS) =   30110.000  TEMP(K) =   299.89  PRESS =     2.2
 Etot   =    -97305.0236  EKtot   =     24222.6687  EPtot      =   -121527.6923
 BOND   =       666.0669  ANGLE   =      1876.6524  DIHED      =      2840.2435
 1-4 NB =       797.8419  1-4 EEL =     10639.3644  VDWAALS    =     15025.8005
 EELEC  =   -153373.6619  EHBOND  =         0.0000  RESTRAINT  =         0.0000
 EKCMT  =     10862.8854  VIRIAL  =     10843.6165  VOLUME     =    397542.7089
                                                    Density    =         1.0148
 ------------------------------------------------------------------------------

      R M S  F L U C T U A T I O N S

 NSTEP = 15000000   TIME(PS) =   30110.000  TEMP(K) =     1.13  PRESS =   113.9
 Etot   =        47.0855  EKtot   =        91.2891  EPtot      =       103.0402
 BOND   =        21.5284  ANGLE   =        30.8824  DIHED      =        22.0526
 1-4 NB =        10.8440  1-4 EEL =        41.2873  VDWAALS    =       154.6120
 EELEC  =       195.2482  EHBOND  =         0.0000  RESTRAINT  =         0.0000
 EKCMT  =        67.0108  VIRIAL  =       984.3984  VOLUME     =       489.4895
                                                    Density    =         0.0012
 ------------------------------------------------------------------------------
