-------------------------------------------------------
          Amber 24 PMEMD                              2024
          -------------------------------------------------------

  [-O]verwriting output

File Assignments:

 Here is the input file:

md 5 ns temp = 300 P=cte (ntb=2,ntp=1) No restraints
&cntrl
 nstlim = 15000000, dt = 0.002,
 ntx = 5, irest = 1, cut = 9.0, ioutfm = 1,
 ntpr = 50000, ntwr = 50000, ntwx = 50000,
 iwrap = 1,
 tempi = 300., temp0 = 300.,
 ntt = 1,
 ntb = 2, ntp = 1,
 ntc = 2, ntf = 2,
 ntr = 0,
&end

Note: ig = -1. Setting random seed to   573004 based on wallclock time in
      microseconds.

--------------------------------------------------------------------------------
   1.  RESOURCE   USE:
--------------------------------------------------------------------------------

 getting box info from netcdf restart file
 NATOM  =   39744 NTYPES =      16 NBONH =   37937 MBONA  =    1844
 NTHETH =    3999 MTHETA =    2499 NPHIH =    8123 MPHIA  =    7877
 NHPARM =       0 NPARM  =       0 NNB   =   67903 NRES   =   12294
 NBONA  =    1844 NTHETA =    2499 NPHIA =    7877 NUMBND =      77
 NUMANG =     179 NPTRA  =     200 NATYP =      39 NPHB   =       0
 IFBOX  =       1 NMXRS  =      40 IFCAP =       0 NEXTRA =       0
 NCOPY  =       0

     BOX TYPE: RECTILINEAR

--------------------------------------------------------------------------------
   2.  CONTROL  DATA  FOR  THE  RUN
--------------------------------------------------------------------------------

default_name

General flags:
     imin    =       0, nmropt  =       0

Nature and format of input:
     ntx     =       5, irest   =       1, ntrx    =       1

Nature and format of output:
     ntxo    =       2, ntpr    =   50000, ntrx    =       1, ntwr    =   50000
     iwrap   =       1, ntwx    =   50000, ntwv    =       0, ntwe    =       0
     ioutfm  =       1, ntwprt  =       0, idecomp =       0, rbornstat=      0

Potential function:
     ntf     =       2, ntb     =       2, igb     =       0, nsnb    =      25
     ipol    =       0, gbsa    =       0, iesp    =       0
     dielc   =   1.00000, cut     =   9.00000, intdiel =   1.00000

Frozen or restrained atoms:
     ibelly  =       0, ntr     =       0

Molecular dynamics:
     nstlim  =  15000000, nscm    =      1000, nrespa  =         1
     t       =   0.00000, dt      =   0.00200, vlimit  =  -1.00000

Berendsen (weak-coupling) temperature regulation:
     temp0   = 300.00000, tempi   = 300.00000, tautp   =   1.00000

Pressure regulation:
     ntp     =       1
     pres0   =   1.00000, comp    =  44.60000, taup    =   1.00000

SHAKE:
     ntc     =       2, jfastw  =       0
     tol     =   0.00001

Ewald parameters:
     verbose =       0, ew_type =       0, nbflag  =       1, use_pme =       1
     vdwmeth =       1, eedmeth =       1, netfrc  =       1
     Box X =   67.081   Box Y =   76.023   Box Z =   77.832
     Alpha =   90.000   Beta  =   90.000   Gamma =   90.000
     NFFT1 =   64       NFFT2 =   80       NFFT3 =   80
     Cutoff=    9.000   Tol   =0.100E-04
     Ewald Coefficient =  0.30768
     Interpolation order =    4

--------------------------------------------------------------------------------
   3.  ATOMIC COORDINATES AND VELOCITIES
--------------------------------------------------------------------------------

default_name
 begin time read from input coords =240110.000 ps

 Number of triangulated 3-point waters found:    12062

     Sum of charges from parm topology file =   0.00000190
     Forcing neutrality...

--------------------------------------------------------------------------------
   4.  RESULTS
 NSTEP =    50000   TIME(PS) =  240210.000  TEMP(K) =   299.88  PRESS =   -37.9
 Etot   =    -97301.6383  EKtot   =     24221.5859  EPtot      =   -121523.2242
 BOND   =       669.5524  ANGLE   =      1947.6860  DIHED      =      2820.7355
 1-4 NB =       804.4608  1-4 EEL =     10611.1654  VDWAALS    =     14856.3241
 EELEC  =   -153233.1485  EHBOND  =         0.0000  RESTRAINT  =         0.0000
 EKCMT  =     10863.5482  VIRIAL  =     11188.5690  VOLUME     =    397272.9950
                                                    Density    =         1.0155
 ------------------------------------------------------------------------------

      A V E R A G E S   O V E R     300 S T E P S

 NSTEP = 15000000   TIME(PS) =  270110.000  TEMP(K) =   299.90  PRESS =     0.8
 Etot   =    -97341.1341  EKtot   =     24223.5924  EPtot      =   -121564.7265
 BOND   =       665.5379  ANGLE   =      1881.3759  DIHED      =      2821.7073
 1-4 NB =       795.8705  1-4 EEL =     10614.7349  VDWAALS    =     15021.5990
 EELEC  =   -153365.5518  EHBOND  =         0.0000  RESTRAINT  =         0.0000
 EKCMT  =     10863.8541  VIRIAL  =     10857.0488  VOLUME     =    397569.2263
                                                    Density    =         1.0147
 ------------------------------------------------------------------------------

      R M S  F L U C T U A T I O N S

 NSTEP = 15000000   TIME(PS) =  270110.000  TEMP(K) =     1.19  PRESS =   127.9
 Etot   =        44.3481  EKtot   =        95.8559  EPtot      =       106.3052
 BOND   =        20.3950  ANGLE   =        30.4577  DIHED      =        19.4560
 1-4 NB =        10.9440  1-4 EEL =        42.6554  VDWAALS    =       153.6790
 EELEC  =       204.4233  EHBOND  =         0.0000  RESTRAINT  =         0.0000
 EKCMT  =        72.8648  VIRIAL  =      1102.9671  VOLUME     =       478.7155
                                                    Density    =         0.0012
 ------------------------------------------------------------------------------
