-------------------------------------------------------
          Amber 24 PMEMD                              2024
          -------------------------------------------------------

  [-O]verwriting output

File Assignments:

 Here is the input file:

calentamiento 100 --> 300 k = 20 V=cte (ntb=1)
&cntrl
 nstlim = 10000, dt = 0.002, cut = 9., ioutfm = 1,
 ntx = 1, irest = 0, iwrap=0,
 ntpr = 500, ntwr = 500, ntwx = 500,
 tempi = 100.0, temp0 = 300.0,
 ntt = 1,
 ntb = 1,
 ntc = 2, ntf = 2,
 ntr = 1, restraint_wt = 5.0, restraintmask = ":1-225@CA"
&end
&wt
type="END",
&end

Note: ig = -1. Setting random seed to   995349 based on wallclock time in
      microseconds.

--------------------------------------------------------------------------------
   1.  RESOURCE   USE:
--------------------------------------------------------------------------------

 getting box info from netcdf restart file
 NATOM  =   39744 NTYPES =      16 NBONH =   37937 MBONA  =    1844
 NTHETH =    3999 MTHETA =    2499 NPHIH =    8123 MPHIA  =    7877
 NHPARM =       0 NPARM  =       0 NNB   =   67903 NRES   =   12294
 NBONA  =    1844 NTHETA =    2499 NPHIA =    7877 NUMBND =      77
 NUMANG =     179 NPTRA  =     200 NATYP =      39 NPHB   =       0
 IFBOX  =       1 NMXRS  =      40 IFCAP =       0 NEXTRA =       0
 NCOPY  =       0

     BOX TYPE: RECTILINEAR

--------------------------------------------------------------------------------
   2.  CONTROL  DATA  FOR  THE  RUN
--------------------------------------------------------------------------------

default_name

General flags:
     imin    =       0, nmropt  =       0

Nature and format of input:
     ntx     =       1, irest   =       0, ntrx    =       1

Nature and format of output:
     ntxo    =       2, ntpr    =     500, ntrx    =       1, ntwr    =     500
     iwrap   =       0, ntwx    =     500, ntwv    =       0, ntwe    =       0
     ioutfm  =       1, ntwprt  =       0, idecomp =       0, rbornstat=      0

Potential function:
     ntf     =       2, ntb     =       1, igb     =       0, nsnb    =      25
     ipol    =       0, gbsa    =       0, iesp    =       0
     dielc   =   1.00000, cut     =   9.00000, intdiel =   1.00000

Frozen or restrained atoms:
     ibelly  =       0, ntr     =       1
     restraint_wt =   5.00000

Molecular dynamics:
     nstlim  =     10000, nscm    =         0, nrespa  =         1
     t       =   0.00000, dt      =   0.00200, vlimit  =  -1.00000

Berendsen (weak-coupling) temperature regulation:
     temp0   = 300.00000, tempi   = 100.00000, tautp   =   1.00000

SHAKE:
     ntc     =       2, jfastw  =       0
     tol     =   0.00001

Ewald parameters:
     verbose =       0, ew_type =       0, nbflag  =       1, use_pme =       1
     vdwmeth =       1, eedmeth =       1, netfrc  =       1
     Box X =   71.755   Box Y =   81.320   Box Z =   83.256
     Alpha =   90.000   Beta  =   90.000   Gamma =   90.000
     NFFT1 =   72       NFFT2 =   84       NFFT3 =   84
     Cutoff=    9.000   Tol   =0.100E-04
     Ewald Coefficient =  0.30768
     Interpolation order =    4

    LOADING THE CONSTRAINED ATOMS AS GROUPS

   5.  REFERENCE ATOM COORDINATES

  default_name
     Mask :1-225@CA; matches   224 atoms

--------------------------------------------------------------------------------
   3.  ATOMIC COORDINATES AND VELOCITIES
--------------------------------------------------------------------------------

default_name
 begin time read from input coords =     0.000 ps

 Number of triangulated 3-point waters found:    12062

     Sum of charges from parm topology file =   0.00000190
     Forcing neutrality...

--------------------------------------------------------------------------------
   4.  RESULTS
 NSTEP =        0   TIME(PS) =       0.000  TEMP(K) =   146.76  PRESS =     0.0
 Etot   =   -163643.3463  EKtot   =     11854.7130  EPtot      =   -175498.0593
 BOND   =        95.1586  ANGLE   =       534.4128  DIHED      =      2595.0634
 1-4 NB =       724.2123  1-4 EEL =     10800.0640  VDWAALS    =     35622.3323
 EELEC  =   -225869.3026  EHBOND  =         0.0000  RESTRAINT  =         0.0000
 ------------------------------------------------------------------------------

      A V E R A G E S   O V E R      20 S T E P S

 NSTEP =    10000   TIME(PS) =      20.000  TEMP(K) =   277.26  PRESS =     0.0
 Etot   =   -100120.0722  EKtot   =     22395.2228  EPtot      =   -122515.2950
 BOND   =       635.3331  ANGLE   =      1820.5445  DIHED      =      2892.5457
 1-4 NB =       808.0159  1-4 EEL =     10755.7398  VDWAALS    =     16045.5374
 EELEC  =   -155539.8024  EHBOND  =         0.0000  RESTRAINT  =        66.7911
 EAMBER (non-restraint)  =   -122582.0861
 ------------------------------------------------------------------------------

      R M S  F L U C T U A T I O N S

 NSTEP =    10000   TIME(PS) =      20.000  TEMP(K) =    38.10  PRESS =     0.0
 Etot   =      7937.6902  EKtot   =      3077.7084  EPtot      =      4868.6598
 BOND   =        77.7687  ANGLE   =       202.8543  DIHED      =        43.3079
 1-4 NB =        19.6205  1-4 EEL =        27.7931  VDWAALS    =      1847.0581
 EELEC  =      6395.0453  EHBOND  =         0.0000  RESTRAINT  =         7.9030
 EAMBER (non-restraint)  =      4860.7569
 ------------------------------------------------------------------------------
