-------------------------------------------------------
          Amber 24 PMEMD                              2024
          -------------------------------------------------------

  [-O]verwriting output

File Assignments:

 Here is the input file:

md 5 ns temp = 300 P=cte (ntb=2,ntp=1) No restraints
&cntrl
 nstlim = 15000000, dt = 0.002,
 ntx = 5, irest = 1, cut = 9.0, ioutfm = 1,
 ntpr = 50000, ntwr = 50000, ntwx = 50000,
 iwrap = 1,
 tempi = 300., temp0 = 300.,
 ntt = 1,
 ntb = 2, ntp = 1,
 ntc = 2, ntf = 2,
 ntr = 0,
&end

Note: ig = -1. Setting random seed to   702180 based on wallclock time in
      microseconds.

--------------------------------------------------------------------------------
   1.  RESOURCE   USE:
--------------------------------------------------------------------------------

 getting box info from netcdf restart file
 NATOM  =   39744 NTYPES =      16 NBONH =   37937 MBONA  =    1844
 NTHETH =    3999 MTHETA =    2499 NPHIH =    8123 MPHIA  =    7877
 NHPARM =       0 NPARM  =       0 NNB   =   67903 NRES   =   12294
 NBONA  =    1844 NTHETA =    2499 NPHIA =    7877 NUMBND =      77
 NUMANG =     179 NPTRA  =     200 NATYP =      39 NPHB   =       0
 IFBOX  =       1 NMXRS  =      40 IFCAP =       0 NEXTRA =       0
 NCOPY  =       0

     BOX TYPE: RECTILINEAR

--------------------------------------------------------------------------------
   2.  CONTROL  DATA  FOR  THE  RUN
--------------------------------------------------------------------------------

default_name

General flags:
     imin    =       0, nmropt  =       0

Nature and format of input:
     ntx     =       5, irest   =       1, ntrx    =       1

Nature and format of output:
     ntxo    =       2, ntpr    =   50000, ntrx    =       1, ntwr    =   50000
     iwrap   =       1, ntwx    =   50000, ntwv    =       0, ntwe    =       0
     ioutfm  =       1, ntwprt  =       0, idecomp =       0, rbornstat=      0

Potential function:
     ntf     =       2, ntb     =       2, igb     =       0, nsnb    =      25
     ipol    =       0, gbsa    =       0, iesp    =       0
     dielc   =   1.00000, cut     =   9.00000, intdiel =   1.00000

Frozen or restrained atoms:
     ibelly  =       0, ntr     =       0

Molecular dynamics:
     nstlim  =  15000000, nscm    =      1000, nrespa  =         1
     t       =   0.00000, dt      =   0.00200, vlimit  =  -1.00000

Berendsen (weak-coupling) temperature regulation:
     temp0   = 300.00000, tempi   = 300.00000, tautp   =   1.00000

Pressure regulation:
     ntp     =       1
     pres0   =   1.00000, comp    =  44.60000, taup    =   1.00000

SHAKE:
     ntc     =       2, jfastw  =       0
     tol     =   0.00001

Ewald parameters:
     verbose =       0, ew_type =       0, nbflag  =       1, use_pme =       1
     vdwmeth =       1, eedmeth =       1, netfrc  =       1
     Box X =   67.122   Box Y =   76.070   Box Z =   77.880
     Alpha =   90.000   Beta  =   90.000   Gamma =   90.000
     NFFT1 =   64       NFFT2 =   80       NFFT3 =   80
     Cutoff=    9.000   Tol   =0.100E-04
     Ewald Coefficient =  0.30768
     Interpolation order =    4

--------------------------------------------------------------------------------
   3.  ATOMIC COORDINATES AND VELOCITIES
--------------------------------------------------------------------------------

default_name
 begin time read from input coords =120110.000 ps

 Number of triangulated 3-point waters found:    12062

     Sum of charges from parm topology file =   0.00000190
     Forcing neutrality...

--------------------------------------------------------------------------------
   4.  RESULTS
 NSTEP =    50000   TIME(PS) =  120210.000  TEMP(K) =   299.07  PRESS =    97.4
 Etot   =    -97326.7847  EKtot   =     24156.1484  EPtot      =   -121482.9332
 BOND   =       662.8358  ANGLE   =      1913.3046  DIHED      =      2823.6677
 1-4 NB =       809.5079  1-4 EEL =     10632.1219  VDWAALS    =     14979.0431
 EELEC  =   -153303.4143  EHBOND  =         0.0000  RESTRAINT  =         0.0000
 EKCMT  =     10890.5870  VIRIAL  =     10054.9547  VOLUME     =    397327.6241
                                                    Density    =         1.0153
 ------------------------------------------------------------------------------

      A V E R A G E S   O V E R     300 S T E P S

 NSTEP = 15000000   TIME(PS) =  150110.000  TEMP(K) =   299.97  PRESS =    -0.6
 Etot   =    -97327.5301  EKtot   =     24228.6723  EPtot      =   -121556.2024
 BOND   =       669.5583  ANGLE   =      1881.4537  DIHED      =      2825.5311
 1-4 NB =       798.5607  1-4 EEL =     10623.8559  VDWAALS    =     15024.1806
 EELEC  =   -153379.3427  EHBOND  =         0.0000  RESTRAINT  =         0.0000
 EKCMT  =     10858.2021  VIRIAL  =     10863.1440  VOLUME     =    397577.9219
                                                    Density    =         1.0147
 ------------------------------------------------------------------------------

      R M S  F L U C T U A T I O N S

 NSTEP = 15000000   TIME(PS) =  150110.000  TEMP(K) =     1.18  PRESS =   127.7
 Etot   =        44.1254  EKtot   =        94.9881  EPtot      =       107.6880
 BOND   =        20.6240  ANGLE   =        32.6117  DIHED      =        17.7150
 1-4 NB =        12.1619  1-4 EEL =        44.8886  VDWAALS    =       153.5362
 EELEC  =       194.9829  EHBOND  =         0.0000  RESTRAINT  =         0.0000
 EKCMT  =        78.2813  VIRIAL  =      1102.6771  VOLUME     =       481.1654
                                                    Density    =         0.0012
 ------------------------------------------------------------------------------
